<routes>
  <vType id="car" accel="0.8" decel="4.5" sigma="0.5" length="5" minGap="2.5" maxSpeed="16.67" guiShape="passenger"/>
  <trip id="v698" type="car" depart="2.85" from="e11_e" to="e11_cs" />
  <trip id="v699" type="car" depart="8.85" from="e11_e" to="e11_cw" />
  <trip id="v700" type="car" depart="14.90" from="e11_e" to="e11_cs" />
  <trip id="v701" type="car" depart="20.14" from="e11_e" to="e11_cw" />
  <trip id="v702" type="car" depart="25.49" from="e11_e" to="e11_cs" />
  <trip id="v703" type="car" depart="30.79" from="e11_e" to="e11_cs" />
  <trip id="v704" type="car" depart="36.97" from="e11_e" to="e11_cs" />
  <trip id="v705" type="car" depart="42.66" from="e11_e" to="e11_cw" />
  <trip id="v706" type="car" depart="48.56" from="e11_e" to="e11_cw" />
  <trip id="v707" type="car" depart="54.55" from="e11_e" to="e11_cw" />
  <trip id="v708" type="car" depart="60.66" from="e11_e" to="e11_cs" />
  <trip id="v709" type="car" depart="65.78" from="e11_e" to="e11_cs" />
  <trip id="v710" type="car" depart="71.18" from="e11_e" to="e11_cs" />
  <trip id="v711" type="car" depart="76.90" from="e11_e" to="e11_cw" />
  <trip id="v712" type="car" depart="82.03" from="e11_e" to="e11_cs" />
  <trip id="v713" type="car" depart="87.35" from="e11_e" to="e11_cw" />
  <trip id="v714" type="car" depart="93.27" from="e11_e" to="e11_cw" />
  <trip id="v715" type="car" depart="98.46" from="e11_e" to="e11_cw" />
  <trip id="v716" type="car" depart="104.33" from="e11_e" to="e11_cw" />
  <trip id="v717" type="car" depart="110.05" from="e11_e" to="e11_cs" />
  <trip id="v718" type="car" depart="115.40" from="e11_e" to="e11_cs" />
  <trip id="v719" type="car" depart="120.86" from="e11_e" to="e11_cw" />
  <trip id="v720" type="car" depart="126.82" from="e11_e" to="e11_cw" />
  <trip id="v721" type="car" depart="131.99" from="e11_e" to="e11_cs" />
  <trip id="v722" type="car" depart="137.08" from="e11_e" to="e11_cs" />
  <trip id="v723" type="car" depart="142.41" from="e11_e" to="e11_cs" />
  <trip id="v724" type="car" depart="148.07" from="e11_e" to="e11_cs" />
  <trip id="v725" type="car" depart="153.66" from="e11_e" to="e11_cw" />
  <trip id="v726" type="car" depart="159.73" from="e11_e" to="e11_cw" />
  <trip id="v727" type="car" depart="165.45" from="e11_e" to="e11_cs" />
  <trip id="v728" type="car" depart="170.76" from="e11_e" to="e11_cw" />
  <trip id="v729" type="car" depart="176.96" from="e11_e" to="e11_cw" />
  <trip id="v730" type="car" depart="182.40" from="e11_e" to="e11_cw" />
  <trip id="v731" type="car" depart="187.61" from="e11_e" to="e11_cw" />
  <trip id="v732" type="car" depart="193.01" from="e11_e" to="e11_cs" />
  <trip id="v733" type="car" depart="198.59" from="e11_e" to="e11_cw" />
  <trip id="v734" type="car" depart="203.71" from="e11_e" to="e11_cw" />
  <trip id="v735" type="car" depart="208.94" from="e11_e" to="e11_cw" />
  <trip id="v736" type="car" depart="214.09" from="e11_e" to="e11_cw" />
  <trip id="v737" type="car" depart="220.04" from="e11_e" to="e11_cs" />
  <trip id="v738" type="car" depart="225.91" from="e11_e" to="e11_cs" />
  <trip id="v739" type="car" depart="231.92" from="e11_e" to="e11_cw" />
  <trip id="v740" type="car" depart="237.39" from="e11_e" to="e11_cs" />
  <trip id="v741" type="car" depart="242.95" from="e11_e" to="e11_cs" />
  <trip id="v742" type="car" depart="248.73" from="e11_e" to="e11_cs" />
  <trip id="v743" type="car" depart="254.90" from="e11_e" to="e11_cw" />
  <trip id="v744" type="car" depart="260.71" from="e11_e" to="e11_cs" />
  <trip id="v745" type="car" depart="266.20" from="e11_e" to="e11_cs" />
  <trip id="v746" type="car" depart="272.21" from="e11_e" to="e11_cw" />
  <trip id="v747" type="car" depart="277.49" from="e11_e" to="e11_cs" />
  <trip id="v748" type="car" depart="283.58" from="e11_e" to="e11_cw" />
  <trip id="v749" type="car" depart="289.08" from="e11_e" to="e11_cs" />
  <trip id="v750" type="car" depart="294.18" from="e11_e" to="e11_cw" />
  <trip id="v751" type="car" depart="300.28" from="e11_e" to="e11_cw" />
  <trip id="v752" type="car" depart="305.37" from="e11_e" to="e11_cw" />
  <trip id="v753" type="car" depart="311.18" from="e11_e" to="e11_cw" />
  <trip id="v754" type="car" depart="317.10" from="e11_e" to="e11_cs" />
  <trip id="v755" type="car" depart="322.78" from="e11_e" to="e11_cs" />
  <trip id="v756" type="car" depart="327.97" from="e11_e" to="e11_cs" />
  <trip id="v757" type="car" depart="334.15" from="e11_e" to="e11_cw" />
  <trip id="v758" type="car" depart="339.80" from="e11_e" to="e11_cs" />
  <trip id="v759" type="car" depart="344.90" from="e11_e" to="e11_cs" />
  <trip id="v760" type="car" depart="350.70" from="e11_e" to="e11_cs" />
  <trip id="v761" type="car" depart="355.82" from="e11_e" to="e11_cw" />
  <trip id="v762" type="car" depart="361.73" from="e11_e" to="e11_cs" />
  <trip id="v763" type="car" depart="367.74" from="e11_e" to="e11_cs" />
  <trip id="v764" type="car" depart="373.20" from="e11_e" to="e11_cs" />
  <trip id="v765" type="car" depart="379.16" from="e11_e" to="e11_cs" />
  <trip id="v766" type="car" depart="385.06" from="e11_e" to="e11_cs" />
  <trip id="v767" type="car" depart="390.26" from="e11_e" to="e11_cs" />
  <trip id="v768" type="car" depart="396.03" from="e11_e" to="e11_cs" />
  <trip id="v769" type="car" depart="401.77" from="e11_e" to="e11_cw" />
  <trip id="v770" type="car" depart="407.69" from="e11_e" to="e11_cs" />
  <trip id="v771" type="car" depart="413.81" from="e11_e" to="e11_cs" />
  <trip id="v772" type="car" depart="418.97" from="e11_e" to="e11_cs" />
  <trip id="v773" type="car" depart="424.48" from="e11_e" to="e11_cw" />
  <trip id="v774" type="car" depart="430.53" from="e11_e" to="e11_cs" />
  <trip id="v775" type="car" depart="436.41" from="e11_e" to="e11_cw" />
  <trip id="v776" type="car" depart="442.22" from="e11_e" to="e11_cs" />
  <trip id="v777" type="car" depart="448.12" from="e11_e" to="e11_cw" />
  <trip id="v778" type="car" depart="453.28" from="e11_e" to="e11_cs" />
  <trip id="v779" type="car" depart="458.79" from="e11_e" to="e11_cw" />
  <trip id="v780" type="car" depart="464.00" from="e11_e" to="e11_cs" />
  <trip id="v781" type="car" depart="469.89" from="e11_e" to="e11_cs" />
  <trip id="v782" type="car" depart="474.98" from="e11_e" to="e11_cs" />
  <trip id="v783" type="car" depart="481.04" from="e11_e" to="e11_cw" />
  <trip id="v784" type="car" depart="486.78" from="e11_e" to="e11_cw" />
  <trip id="v785" type="car" depart="492.48" from="e11_e" to="e11_cs" />
  <trip id="v786" type="car" depart="498.19" from="e11_e" to="e11_cs" />
  <trip id="v787" type="car" depart="504.01" from="e11_e" to="e11_cs" />
  <trip id="v788" type="car" depart="510.20" from="e11_e" to="e11_cw" />
  <trip id="v789" type="car" depart="515.64" from="e11_e" to="e11_cs" />
  <trip id="v790" type="car" depart="521.06" from="e11_e" to="e11_cs" />
  <trip id="v791" type="car" depart="527.12" from="e11_e" to="e11_cs" />
  <trip id="v792" type="car" depart="532.94" from="e11_e" to="e11_cw" />
  <trip id="v793" type="car" depart="538.90" from="e11_e" to="e11_cs" />
  <trip id="v794" type="car" depart="544.74" from="e11_e" to="e11_cs" />
  <trip id="v795" type="car" depart="550.72" from="e11_e" to="e11_cs" />
  <trip id="v796" type="car" depart="556.80" from="e11_e" to="e11_cw" />
  <trip id="v797" type="car" depart="562.88" from="e11_e" to="e11_cw" />
  <trip id="v798" type="car" depart="568.43" from="e11_e" to="e11_cw" />
  <trip id="v799" type="car" depart="574.44" from="e11_e" to="e11_cs" />
  <trip id="v800" type="car" depart="580.41" from="e11_e" to="e11_cs" />
  <trip id="v801" type="car" depart="586.42" from="e11_e" to="e11_cs" />
  <trip id="v802" type="car" depart="592.60" from="e11_e" to="e11_cw" />
  <trip id="v803" type="car" depart="597.83" from="e11_e" to="e11_cw" />
  <trip id="v804" type="car" depart="603.68" from="e11_e" to="e11_cs" />
  <trip id="v805" type="car" depart="609.64" from="e11_e" to="e11_cs" />
  <trip id="v806" type="car" depart="615.61" from="e11_e" to="e11_cs" />
  <trip id="v807" type="car" depart="621.33" from="e11_e" to="e11_cs" />
  <trip id="v808" type="car" depart="627.18" from="e11_e" to="e11_cw" />
  <trip id="v809" type="car" depart="632.83" from="e11_e" to="e11_cw" />
  <trip id="v810" type="car" depart="638.81" from="e11_e" to="e11_cw" />
  <trip id="v811" type="car" depart="644.84" from="e11_e" to="e11_cs" />
  <trip id="v812" type="car" depart="650.25" from="e11_e" to="e11_cw" />
  <trip id="v813" type="car" depart="656.45" from="e11_e" to="e11_cs" />
  <trip id="v814" type="car" depart="662.54" from="e11_e" to="e11_cs" />
  <trip id="v815" type="car" depart="667.96" from="e11_e" to="e11_cw" />
  <trip id="v816" type="car" depart="673.13" from="e11_e" to="e11_cs" />
  <trip id="v817" type="car" depart="678.25" from="e11_e" to="e11_cs" />
  <trip id="v818" type="car" depart="683.56" from="e11_e" to="e11_cw" />
  <trip id="v819" type="car" depart="689.11" from="e11_e" to="e11_cw" />
  <trip id="v820" type="car" depart="694.41" from="e11_e" to="e11_cw" />
  <trip id="v821" type="car" depart="699.58" from="e11_e" to="e11_cw" />
  <trip id="v822" type="car" depart="705.58" from="e11_e" to="e11_cw" />
  <trip id="v823" type="car" depart="710.96" from="e11_e" to="e11_cw" />
  <trip id="v824" type="car" depart="716.16" from="e11_e" to="e11_cs" />
  <trip id="v825" type="car" depart="722.14" from="e11_e" to="e11_cs" />
  <trip id="v826" type="car" depart="727.44" from="e11_e" to="e11_cs" />
  <trip id="v827" type="car" depart="732.53" from="e11_e" to="e11_cw" />
  <trip id="v828" type="car" depart="738.05" from="e11_e" to="e11_cs" />
  <trip id="v829" type="car" depart="743.16" from="e11_e" to="e11_cs" />
  <trip id="v830" type="car" depart="748.98" from="e11_e" to="e11_cs" />
  <trip id="v831" type="car" depart="754.43" from="e11_e" to="e11_cw" />
  <trip id="v832" type="car" depart="759.90" from="e11_e" to="e11_cw" />
  <trip id="v833" type="car" depart="766.04" from="e11_e" to="e11_cw" />
  <trip id="v834" type="car" depart="771.90" from="e11_e" to="e11_cs" />
  <trip id="v835" type="car" depart="777.77" from="e11_e" to="e11_cs" />
  <trip id="v836" type="car" depart="783.93" from="e11_e" to="e11_cs" />
  <trip id="v837" type="car" depart="790.00" from="e11_e" to="e11_cs" />
  <trip id="v838" type="car" depart="795.91" from="e11_e" to="e11_cw" />
  <trip id="v839" type="car" depart="801.94" from="e11_e" to="e11_cs" />
  <trip id="v840" type="car" depart="807.63" from="e11_e" to="e11_cw" />
  <trip id="v841" type="car" depart="812.87" from="e11_e" to="e11_cs" />
  <trip id="v842" type="car" depart="818.76" from="e11_e" to="e11_cw" />
  <trip id="v843" type="car" depart="824.58" from="e11_e" to="e11_cw" />
  <trip id="v844" type="car" depart="829.93" from="e11_e" to="e11_cs" />
  <trip id="v845" type="car" depart="835.47" from="e11_e" to="e11_cw" />
  <trip id="v846" type="car" depart="840.95" from="e11_e" to="e11_cs" />
  <trip id="v847" type="car" depart="846.47" from="e11_e" to="e11_cw" />
  <trip id="v848" type="car" depart="852.50" from="e11_e" to="e11_cs" />
  <trip id="v849" type="car" depart="858.60" from="e11_e" to="e11_cs" />
  <trip id="v850" type="car" depart="864.30" from="e11_e" to="e11_cw" />
  <trip id="v851" type="car" depart="870.30" from="e11_e" to="e11_cw" />
  <trip id="v852" type="car" depart="876.31" from="e11_e" to="e11_cs" />
  <trip id="v853" type="car" depart="882.28" from="e11_e" to="e11_cw" />
  <trip id="v854" type="car" depart="888.22" from="e11_e" to="e11_cw" />
  <trip id="v855" type="car" depart="893.30" from="e11_e" to="e11_cs" />
  <trip id="v856" type="car" depart="898.82" from="e11_e" to="e11_cw" />
  <trip id="v857" type="car" depart="0.73" from="e11_s" to="e11_cw" />
  <trip id="v858" type="car" depart="9.38" from="e11_s" to="e11_cw" />
  <trip id="v859" type="car" depart="17.09" from="e11_s" to="e11_cw" />
  <trip id="v860" type="car" depart="25.52" from="e11_s" to="e11_ce" />
  <trip id="v861" type="car" depart="33.49" from="e11_s" to="e11_ce" />
  <trip id="v862" type="car" depart="41.77" from="e11_s" to="e11_cw" />
  <trip id="v863" type="car" depart="50.01" from="e11_s" to="e11_ce" />
  <trip id="v864" type="car" depart="57.82" from="e11_s" to="e11_cw" />
  <trip id="v865" type="car" depart="65.33" from="e11_s" to="e11_cw" />
  <trip id="v866" type="car" depart="73.18" from="e11_s" to="e11_ce" />
  <trip id="v867" type="car" depart="81.25" from="e11_s" to="e11_cw" />
  <trip id="v868" type="car" depart="90.14" from="e11_s" to="e11_cw" />
  <trip id="v869" type="car" depart="99.01" from="e11_s" to="e11_cw" />
  <trip id="v870" type="car" depart="106.86" from="e11_s" to="e11_cw" />
  <trip id="v871" type="car" depart="114.54" from="e11_s" to="e11_ce" />
  <trip id="v872" type="car" depart="122.31" from="e11_s" to="e11_cw" />
  <trip id="v873" type="car" depart="129.98" from="e11_s" to="e11_ce" />
  <trip id="v874" type="car" depart="137.99" from="e11_s" to="e11_cw" />
  <trip id="v875" type="car" depart="145.98" from="e11_s" to="e11_ce" />
  <trip id="v876" type="car" depart="154.17" from="e11_s" to="e11_ce" />
  <trip id="v877" type="car" depart="161.88" from="e11_s" to="e11_ce" />
  <trip id="v878" type="car" depart="170.77" from="e11_s" to="e11_ce" />
  <trip id="v879" type="car" depart="178.49" from="e11_s" to="e11_ce" />
  <trip id="v880" type="car" depart="185.93" from="e11_s" to="e11_cw" />
  <trip id="v881" type="car" depart="194.66" from="e11_s" to="e11_ce" />
  <trip id="v882" type="car" depart="202.73" from="e11_s" to="e11_cw" />
  <trip id="v883" type="car" depart="211.38" from="e11_s" to="e11_ce" />
  <trip id="v884" type="car" depart="219.11" from="e11_s" to="e11_cw" />
  <trip id="v885" type="car" depart="226.52" from="e11_s" to="e11_ce" />
  <trip id="v886" type="car" depart="234.64" from="e11_s" to="e11_cw" />
  <trip id="v887" type="car" depart="242.48" from="e11_s" to="e11_ce" />
  <trip id="v888" type="car" depart="250.49" from="e11_s" to="e11_ce" />
  <trip id="v889" type="car" depart="257.87" from="e11_s" to="e11_cw" />
  <trip id="v890" type="car" depart="265.53" from="e11_s" to="e11_ce" />
  <trip id="v891" type="car" depart="273.74" from="e11_s" to="e11_cw" />
  <trip id="v892" type="car" depart="281.91" from="e11_s" to="e11_cw" />
  <trip id="v893" type="car" depart="289.36" from="e11_s" to="e11_cw" />
  <trip id="v894" type="car" depart="298.14" from="e11_s" to="e11_cw" />
  <trip id="v895" type="car" depart="306.84" from="e11_s" to="e11_ce" />
  <trip id="v896" type="car" depart="315.08" from="e11_s" to="e11_ce" />
  <trip id="v897" type="car" depart="324.00" from="e11_s" to="e11_cw" />
  <trip id="v898" type="car" depart="332.81" from="e11_s" to="e11_cw" />
  <trip id="v899" type="car" depart="340.69" from="e11_s" to="e11_cw" />
  <trip id="v900" type="car" depart="349.24" from="e11_s" to="e11_cw" />
  <trip id="v901" type="car" depart="356.65" from="e11_s" to="e11_cw" />
  <trip id="v902" type="car" depart="364.27" from="e11_s" to="e11_cw" />
  <trip id="v903" type="car" depart="372.47" from="e11_s" to="e11_cw" />
  <trip id="v904" type="car" depart="380.43" from="e11_s" to="e11_ce" />
  <trip id="v905" type="car" depart="389.21" from="e11_s" to="e11_cw" />
  <trip id="v906" type="car" depart="397.20" from="e11_s" to="e11_cw" />
  <trip id="v907" type="car" depart="405.48" from="e11_s" to="e11_cw" />
  <trip id="v908" type="car" depart="413.95" from="e11_s" to="e11_cw" />
  <trip id="v909" type="car" depart="421.34" from="e11_s" to="e11_cw" />
  <trip id="v910" type="car" depart="428.86" from="e11_s" to="e11_ce" />
  <trip id="v911" type="car" depart="437.51" from="e11_s" to="e11_cw" />
  <trip id="v912" type="car" depart="445.35" from="e11_s" to="e11_ce" />
  <trip id="v913" type="car" depart="453.99" from="e11_s" to="e11_cw" />
  <trip id="v914" type="car" depart="461.36" from="e11_s" to="e11_cw" />
  <trip id="v915" type="car" depart="469.37" from="e11_s" to="e11_ce" />
  <trip id="v916" type="car" depart="477.29" from="e11_s" to="e11_ce" />
  <trip id="v917" type="car" depart="484.65" from="e11_s" to="e11_ce" />
  <trip id="v918" type="car" depart="492.71" from="e11_s" to="e11_cw" />
  <trip id="v919" type="car" depart="500.12" from="e11_s" to="e11_ce" />
  <trip id="v920" type="car" depart="507.61" from="e11_s" to="e11_ce" />
  <trip id="v921" type="car" depart="515.45" from="e11_s" to="e11_ce" />
  <trip id="v922" type="car" depart="524.03" from="e11_s" to="e11_ce" />
  <trip id="v923" type="car" depart="532.58" from="e11_s" to="e11_cw" />
  <trip id="v924" type="car" depart="540.56" from="e11_s" to="e11_ce" />
  <trip id="v925" type="car" depart="547.98" from="e11_s" to="e11_cw" />
  <trip id="v926" type="car" depart="556.02" from="e11_s" to="e11_cw" />
  <trip id="v927" type="car" depart="564.91" from="e11_s" to="e11_cw" />
  <trip id="v928" type="car" depart="572.46" from="e11_s" to="e11_cw" />
  <trip id="v929" type="car" depart="580.77" from="e11_s" to="e11_ce" />
  <trip id="v930" type="car" depart="588.83" from="e11_s" to="e11_ce" />
  <trip id="v931" type="car" depart="596.77" from="e11_s" to="e11_ce" />
  <trip id="v932" type="car" depart="604.20" from="e11_s" to="e11_ce" />
  <trip id="v933" type="car" depart="612.73" from="e11_s" to="e11_ce" />
  <trip id="v934" type="car" depart="620.93" from="e11_s" to="e11_cw" />
  <trip id="v935" type="car" depart="628.75" from="e11_s" to="e11_cw" />
  <trip id="v936" type="car" depart="637.69" from="e11_s" to="e11_cw" />
  <trip id="v937" type="car" depart="645.98" from="e11_s" to="e11_cw" />
  <trip id="v938" type="car" depart="653.97" from="e11_s" to="e11_cw" />
  <trip id="v939" type="car" depart="662.63" from="e11_s" to="e11_ce" />
  <trip id="v940" type="car" depart="671.15" from="e11_s" to="e11_cw" />
  <trip id="v941" type="car" depart="679.68" from="e11_s" to="e11_ce" />
  <trip id="v942" type="car" depart="687.49" from="e11_s" to="e11_ce" />
  <trip id="v943" type="car" depart="694.90" from="e11_s" to="e11_cw" />
  <trip id="v944" type="car" depart="702.43" from="e11_s" to="e11_ce" />
  <trip id="v945" type="car" depart="711.09" from="e11_s" to="e11_ce" />
  <trip id="v946" type="car" depart="719.25" from="e11_s" to="e11_ce" />
  <trip id="v947" type="car" depart="727.80" from="e11_s" to="e11_ce" />
  <trip id="v948" type="car" depart="735.25" from="e11_s" to="e11_cw" />
  <trip id="v949" type="car" depart="743.75" from="e11_s" to="e11_ce" />
  <trip id="v950" type="car" depart="752.38" from="e11_s" to="e11_cw" />
  <trip id="v951" type="car" depart="761.02" from="e11_s" to="e11_cw" />
  <trip id="v952" type="car" depart="768.75" from="e11_s" to="e11_ce" />
  <trip id="v953" type="car" depart="776.40" from="e11_s" to="e11_ce" />
  <trip id="v954" type="car" depart="784.91" from="e11_s" to="e11_ce" />
  <trip id="v955" type="car" depart="792.42" from="e11_s" to="e11_cw" />
  <trip id="v956" type="car" depart="800.22" from="e11_s" to="e11_ce" />
  <trip id="v957" type="car" depart="807.95" from="e11_s" to="e11_ce" />
  <trip id="v958" type="car" depart="815.43" from="e11_s" to="e11_ce" />
  <trip id="v959" type="car" depart="824.16" from="e11_s" to="e11_cw" />
  <trip id="v960" type="car" depart="831.74" from="e11_s" to="e11_cw" />
  <trip id="v961" type="car" depart="840.21" from="e11_s" to="e11_ce" />
  <trip id="v962" type="car" depart="848.27" from="e11_s" to="e11_ce" />
  <trip id="v963" type="car" depart="856.92" from="e11_s" to="e11_cw" />
  <trip id="v964" type="car" depart="864.44" from="e11_s" to="e11_ce" />
  <trip id="v965" type="car" depart="872.82" from="e11_s" to="e11_ce" />
  <trip id="v966" type="car" depart="880.61" from="e11_s" to="e11_cw" />
  <trip id="v967" type="car" depart="888.29" from="e11_s" to="e11_ce" />
  <trip id="v968" type="car" depart="896.47" from="e11_s" to="e11_ce" />
  <trip id="v969" type="car" depart="6.19" from="e11_w" to="e11_ce" />
  <trip id="v970" type="car" depart="16.61" from="e11_w" to="e11_cs" />
  <trip id="v971" type="car" depart="27.77" from="e11_w" to="e11_cs" />
  <trip id="v972" type="car" depart="39.14" from="e11_w" to="e11_cs" />
  <trip id="v973" type="car" depart="49.04" from="e11_w" to="e11_cs" />
  <trip id="v974" type="car" depart="59.10" from="e11_w" to="e11_cs" />
  <trip id="v975" type="car" depart="69.12" from="e11_w" to="e11_cs" />
  <trip id="v976" type="car" depart="78.99" from="e11_w" to="e11_ce" />
  <trip id="v977" type="car" depart="90.12" from="e11_w" to="e11_ce" />
  <trip id="v978" type="car" depart="99.50" from="e11_w" to="e11_ce" />
  <trip id="v979" type="car" depart="110.26" from="e11_w" to="e11_cs" />
  <trip id="v980" type="car" depart="121.67" from="e11_w" to="e11_cs" />
  <trip id="v981" type="car" depart="131.67" from="e11_w" to="e11_cs" />
  <trip id="v982" type="car" depart="141.83" from="e11_w" to="e11_cs" />
  <trip id="v983" type="car" depart="151.84" from="e11_w" to="e11_cs" />
  <trip id="v984" type="car" depart="161.80" from="e11_w" to="e11_cs" />
  <trip id="v985" type="car" depart="172.23" from="e11_w" to="e11_ce" />
  <trip id="v986" type="car" depart="183.40" from="e11_w" to="e11_ce" />
  <trip id="v987" type="car" depart="192.83" from="e11_w" to="e11_ce" />
  <trip id="v988" type="car" depart="203.49" from="e11_w" to="e11_cs" />
  <trip id="v989" type="car" depart="213.75" from="e11_w" to="e11_cs" />
  <trip id="v990" type="car" depart="224.81" from="e11_w" to="e11_ce" />
  <trip id="v991" type="car" depart="235.82" from="e11_w" to="e11_ce" />
  <trip id="v992" type="car" depart="246.01" from="e11_w" to="e11_ce" />
  <trip id="v993" type="car" depart="257.31" from="e11_w" to="e11_cs" />
  <trip id="v994" type="car" depart="268.46" from="e11_w" to="e11_cs" />
  <trip id="v995" type="car" depart="277.88" from="e11_w" to="e11_cs" />
  <trip id="v996" type="car" depart="287.44" from="e11_w" to="e11_ce" />
  <trip id="v997" type="car" depart="296.85" from="e11_w" to="e11_ce" />
  <trip id="v998" type="car" depart="307.96" from="e11_w" to="e11_cs" />
  <trip id="v999" type="car" depart="317.39" from="e11_w" to="e11_ce" />
  <trip id="v1000" type="car" depart="327.66" from="e11_w" to="e11_cs" />
  <trip id="v1001" type="car" depart="338.30" from="e11_w" to="e11_cs" />
  <trip id="v1002" type="car" depart="348.16" from="e11_w" to="e11_ce" />
  <trip id="v1003" type="car" depart="357.85" from="e11_w" to="e11_ce" />
  <trip id="v1004" type="car" depart="367.41" from="e11_w" to="e11_ce" />
  <trip id="v1005" type="car" depart="377.83" from="e11_w" to="e11_cs" />
  <trip id="v1006" type="car" depart="388.26" from="e11_w" to="e11_ce" />
  <trip id="v1007" type="car" depart="399.10" from="e11_w" to="e11_cs" />
  <trip id="v1008" type="car" depart="409.71" from="e11_w" to="e11_ce" />
  <trip id="v1009" type="car" depart="419.63" from="e11_w" to="e11_ce" />
  <trip id="v1010" type="car" depart="429.46" from="e11_w" to="e11_ce" />
  <trip id="v1011" type="car" depart="438.84" from="e11_w" to="e11_ce" />
  <trip id="v1012" type="car" depart="449.56" from="e11_w" to="e11_cs" />
  <trip id="v1013" type="car" depart="460.92" from="e11_w" to="e11_cs" />
  <trip id="v1014" type="car" depart="470.29" from="e11_w" to="e11_ce" />
  <trip id="v1015" type="car" depart="481.03" from="e11_w" to="e11_cs" />
  <trip id="v1016" type="car" depart="491.74" from="e11_w" to="e11_ce" />
  <trip id="v1017" type="car" depart="501.84" from="e11_w" to="e11_cs" />
  <trip id="v1018" type="car" depart="512.30" from="e11_w" to="e11_ce" />
  <trip id="v1019" type="car" depart="521.87" from="e11_w" to="e11_ce" />
  <trip id="v1020" type="car" depart="531.89" from="e11_w" to="e11_cs" />
  <trip id="v1021" type="car" depart="541.50" from="e11_w" to="e11_ce" />
  <trip id="v1022" type="car" depart="551.51" from="e11_w" to="e11_ce" />
  <trip id="v1023" type="car" depart="562.12" from="e11_w" to="e11_cs" />
  <trip id="v1024" type="car" depart="572.93" from="e11_w" to="e11_ce" />
  <trip id="v1025" type="car" depart="584.02" from="e11_w" to="e11_ce" />
  <trip id="v1026" type="car" depart="593.61" from="e11_w" to="e11_cs" />
  <trip id="v1027" type="car" depart="603.15" from="e11_w" to="e11_cs" />
  <trip id="v1028" type="car" depart="613.17" from="e11_w" to="e11_cs" />
  <trip id="v1029" type="car" depart="623.14" from="e11_w" to="e11_cs" />
  <trip id="v1030" type="car" depart="633.91" from="e11_w" to="e11_cs" />
  <trip id="v1031" type="car" depart="644.16" from="e11_w" to="e11_cs" />
  <trip id="v1032" type="car" depart="654.64" from="e11_w" to="e11_ce" />
  <trip id="v1033" type="car" depart="664.12" from="e11_w" to="e11_cs" />
  <trip id="v1034" type="car" depart="675.03" from="e11_w" to="e11_cs" />
  <trip id="v1035" type="car" depart="684.89" from="e11_w" to="e11_ce" />
  <trip id="v1036" type="car" depart="695.90" from="e11_w" to="e11_ce" />
  <trip id="v1037" type="car" depart="707.02" from="e11_w" to="e11_ce" />
  <trip id="v1038" type="car" depart="718.23" from="e11_w" to="e11_cs" />
  <trip id="v1039" type="car" depart="727.72" from="e11_w" to="e11_ce" />
  <trip id="v1040" type="car" depart="738.30" from="e11_w" to="e11_cs" />
  <trip id="v1041" type="car" depart="748.39" from="e11_w" to="e11_cs" />
  <trip id="v1042" type="car" depart="758.29" from="e11_w" to="e11_cs" />
  <trip id="v1043" type="car" depart="769.39" from="e11_w" to="e11_cs" />
  <trip id="v1044" type="car" depart="780.15" from="e11_w" to="e11_cs" />
  <trip id="v1045" type="car" depart="790.01" from="e11_w" to="e11_cs" />
  <trip id="v1046" type="car" depart="799.86" from="e11_w" to="e11_ce" />
  <trip id="v1047" type="car" depart="810.02" from="e11_w" to="e11_ce" />
  <trip id="v1048" type="car" depart="820.36" from="e11_w" to="e11_cs" />
  <trip id="v1049" type="car" depart="829.80" from="e11_w" to="e11_ce" />
  <trip id="v1050" type="car" depart="840.13" from="e11_w" to="e11_ce" />
  <trip id="v1051" type="car" depart="851.12" from="e11_w" to="e11_cs" />
  <trip id="v1052" type="car" depart="862.06" from="e11_w" to="e11_ce" />
  <trip id="v1053" type="car" depart="871.79" from="e11_w" to="e11_cs" />
  <trip id="v1054" type="car" depart="882.98" from="e11_w" to="e11_ce" />
  <trip id="v1055" type="car" depart="892.60" from="e11_w" to="e11_ce" />
  <trip id="v1631" type="car" depart="3.75" from="e12_e" to="e12_cw" />
  <trip id="v1632" type="car" depart="11.33" from="e12_e" to="e12_cs" />
  <trip id="v1633" type="car" depart="18.78" from="e12_e" to="e12_cw" />
  <trip id="v1634" type="car" depart="25.79" from="e12_e" to="e12_cw" />
  <trip id="v1635" type="car" depart="33.77" from="e12_e" to="e12_cw" />
  <trip id="v1636" type="car" depart="41.67" from="e12_e" to="e12_cs" />
  <trip id="v1637" type="car" depart="49.36" from="e12_e" to="e12_cs" />
  <trip id="v1638" type="car" depart="56.55" from="e12_e" to="e12_cs" />
  <trip id="v1639" type="car" depart="64.03" from="e12_e" to="e12_cw" />
  <trip id="v1640" type="car" depart="71.30" from="e12_e" to="e12_cw" />
  <trip id="v1641" type="car" depart="79.72" from="e12_e" to="e12_cs" />
  <trip id="v1642" type="car" depart="87.15" from="e12_e" to="e12_cs" />
  <trip id="v1643" type="car" depart="94.62" from="e12_e" to="e12_cw" />
  <trip id="v1644" type="car" depart="102.12" from="e12_e" to="e12_cs" />
  <trip id="v1645" type="car" depart="110.25" from="e12_e" to="e12_cs" />
  <trip id="v1646" type="car" depart="118.08" from="e12_e" to="e12_cw" />
  <trip id="v1647" type="car" depart="125.53" from="e12_e" to="e12_cw" />
  <trip id="v1648" type="car" depart="133.38" from="e12_e" to="e12_cs" />
  <trip id="v1649" type="car" depart="140.93" from="e12_e" to="e12_cw" />
  <trip id="v1650" type="car" depart="147.96" from="e12_e" to="e12_cs" />
  <trip id="v1651" type="car" depart="155.63" from="e12_e" to="e12_cw" />
  <trip id="v1652" type="car" depart="163.20" from="e12_e" to="e12_cs" />
  <trip id="v1653" type="car" depart="171.03" from="e12_e" to="e12_cs" />
  <trip id="v1654" type="car" depart="178.59" from="e12_e" to="e12_cw" />
  <trip id="v1655" type="car" depart="186.62" from="e12_e" to="e12_cw" />
  <trip id="v1656" type="car" depart="193.87" from="e12_e" to="e12_cs" />
  <trip id="v1657" type="car" depart="202.03" from="e12_e" to="e12_cw" />
  <trip id="v1658" type="car" depart="209.98" from="e12_e" to="e12_cw" />
  <trip id="v1659" type="car" depart="217.91" from="e12_e" to="e12_cs" />
  <trip id="v1660" type="car" depart="225.84" from="e12_e" to="e12_cw" />
  <trip id="v1661" type="car" depart="234.09" from="e12_e" to="e12_cw" />
  <trip id="v1662" type="car" depart="241.17" from="e12_e" to="e12_cw" />
  <trip id="v1663" type="car" depart="249.62" from="e12_e" to="e12_cw" />
  <trip id="v1664" type="car" depart="257.81" from="e12_e" to="e12_cs" />
  <trip id="v1665" type="car" depart="265.72" from="e12_e" to="e12_cs" />
  <trip id="v1666" type="car" depart="273.48" from="e12_e" to="e12_cw" />
  <trip id="v1667" type="car" depart="280.87" from="e12_e" to="e12_cw" />
  <trip id="v1668" type="car" depart="289.14" from="e12_e" to="e12_cw" />
  <trip id="v1669" type="car" depart="296.34" from="e12_e" to="e12_cs" />
  <trip id="v1670" type="car" depart="303.93" from="e12_e" to="e12_cs" />
  <trip id="v1671" type="car" depart="311.49" from="e12_e" to="e12_cw" />
  <trip id="v1672" type="car" depart="319.22" from="e12_e" to="e12_cs" />
  <trip id="v1673" type="car" depart="326.89" from="e12_e" to="e12_cs" />
  <trip id="v1674" type="car" depart="334.79" from="e12_e" to="e12_cw" />
  <trip id="v1675" type="car" depart="342.87" from="e12_e" to="e12_cs" />
  <trip id="v1676" type="car" depart="349.88" from="e12_e" to="e12_cs" />
  <trip id="v1677" type="car" depart="358.18" from="e12_e" to="e12_cs" />
  <trip id="v1678" type="car" depart="365.61" from="e12_e" to="e12_cs" />
  <trip id="v1679" type="car" depart="372.76" from="e12_e" to="e12_cw" />
  <trip id="v1680" type="car" depart="380.87" from="e12_e" to="e12_cs" />