<routes>
    <vType id="car" accel="0.8" decel="4.5" sigma="0.5" length="5" minGap="2.5" maxSpeed="16.67" guiShape="passenger"/>
    <trip id="veh_0" type="car" depart="0.19" from="e42_n2ce" to="e42_ce2cw" departLane="0" />
    <trip id="veh_1" type="car" depart="0.20" from="e13_e" to="e13_cs" departLane="1" />
    <trip id="veh_2" type="car" depart="0.27" from="e12_w" to="e12_cs" departLane="0" />
    <trip id="veh_3" type="car" depart="0.29" from="e45_w" to="e45_cn" departLane="0" />
    <trip id="veh_4" type="car" depart="0.32" from="e41_s" to="e41_cw" departLane="1" />
    <trip id="veh_5" type="car" depart="0.50" from="e35_side_n" to="e35_side_cs" departLane="0" />
    <trip id="veh_6" type="car" depart="0.55" from="e45_s" to="e45_cn" departLane="1" />
    <trip id="veh_7" type="car" depart="0.58" from="e41_e" to="e41_cw" departLane="1" />
    <trip id="veh_8" type="car" depart="0.62" from="e25_w.89" to="e25_cn" departLane="1" />
    <trip id="veh_9" type="car" depart="0.67" from="e43_w" to="e43_ce" departLane="1" />
    <trip id="veh_10" type="car" depart="0.70" from="e14_e" to="e14_cw" departLane="2" />
    <trip id="veh_11" type="car" depart="0.71" from="e23_s" to="e23_cn" departLane="1" />
    <trip id="veh_12" type="car" depart="0.90" from="e25_w.89" to="e25_ce" departLane="0" />
    <trip id="veh_13" type="car" depart="1.03" from="e22_e" to="e22_cs" departLane="1" />
    <trip id="veh_14" type="car" depart="1.12" from="e35_side_s" to="e35_side_cn" departLane="0" />
    <trip id="veh_15" type="car" depart="1.12" from="e13_e" to="e13_cw" departLane="0" />
    <trip id="veh_16" type="car" depart="1.44" from="e12_w" to="e12_ce" departLane="1" />
    <trip id="veh_17" type="car" depart="1.46" from="e31_main_e" to="e31_main_cw" departLane="1" />
    <trip id="veh_18" type="car" depart="1.48" from="e32_main_e" to="e32_main_cw" departLane="2" />
    <trip id="veh_19" type="car" depart="1.51" from="e21_w" to="e21_ce" departLane="0" />
    <trip id="veh_20" type="car" depart="1.56" from="e32_main_e" to="e32_side_cn" departLane="0" />
    <trip id="veh_21" type="car" depart="1.57" from="e24_n" to="e24_cw" departLane="0" />
    <trip id="veh_22" type="car" depart="1.75" from="e21_s" to="e21_cn" departLane="0" />
    <trip id="veh_23" type="car" depart="1.79" from="e24_s" to="e24_ce" departLane="0" />
    <trip id="veh_24" type="car" depart="1.87" from="e43_e" to="e43_cn" departLane="0" />
    <trip id="veh_25" type="car" depart="1.89" from="e14_w" to="e14_cs" departLane="0" />
    <trip id="veh_26" type="car" depart="1.90" from="e23_w" to="e23_cs" departLane="0" />
    <trip id="veh_27" type="car" depart="1.92" from="e22_w" to="e22_cn" departLane="1" />
    <trip id="veh_28" type="car" depart="1.93" from="e35_main_e" to="e35_main_cw" departLane="2" />
    <trip id="veh_29" type="car" depart="1.97" from="e32_main_w" to="e32_main_ce" departLane="2" />
    <trip id="veh_30" type="car" depart="1.98" from="e11_e" to="e11_cs" departLane="0" />
    <trip id="veh_31" type="car" depart="1.99" from="e32_side_s" to="e32_side_cn" departLane="0" />
    <trip id="veh_32" type="car" depart="2.01" from="e24_w" to="e24_ce" departLane="1" />
    <trip id="veh_33" type="car" depart="2.14" from="e41_s" to="e41_ce" departLane="0" />
    <trip id="veh_34" type="car" depart="2.20" from="e34_side_n" to="e34_main_cw" departLane="0" />
    <trip id="veh_35" type="car" depart="2.25" from="e35_main_w" to="e35_main_ce" departLane="1" />
    <trip id="veh_36" type="car" depart="2.31" from="e24_e" to="e24_cs" departLane="2" />
    <trip id="veh_37" type="car" depart="2.43" from="e14_s" to="e14_cw" departLane="2" />
    <trip id="veh_38" type="car" depart="2.47" from="e32_side_n" to="e32_main_ce" departLane="0" />
    <trip id="veh_39" type="car" depart="2.49" from="e42_ce2cw" to="e42_cw2s" departLane="1" />
    <trip id="veh_40" type="car" depart="2.58" from="e41_e" to="e41_cw" departLane="0" />
    <trip id="veh_41" type="car" depart="2.62" from="e44_n" to="e44_cs" departLane="1" />
    <trip id="veh_42" type="car" depart="2.64" from="e33_main_e" to="e33_main_cw" departLane="1" />
    <trip id="veh_43" type="car" depart="2.68" from="e23_s" to="e23_cn" departLane="0" />
    <trip id="veh_44" type="car" depart="2.81" from="e13_s" to="e13_ce" departLane="1" />
    <trip id="veh_45" type="car" depart="2.93" from="e41_w" to="e41_cs" departLane="0" />
    <trip id="veh_46" type="car" depart="3.03" from="e35_main_w" to="e35_main_ce" departLane="0" />
    <trip id="veh_47" type="car" depart="3.09" from="e42_cw2ce" to="e42_ce2n" departLane="1" />
    <trip id="veh_48" type="car" depart="3.12" from="e21_e" to="e21_cw" departLane="0" />
    <trip id="veh_49" type="car" depart="3.15" from="e25_s" to="e25_cn" departLane="0" />
    <trip id="veh_50" type="car" depart="3.18" from="e25_e" to="e25_cn" departLane="0" />
    <trip id="veh_51" type="car" depart="3.18" from="e42_w2cw" to="e42_cw2s" departLane="0" />
    <trip id="veh_52" type="car" depart="3.33" from="e33_main_w" to="e33_main_ce" departLane="1" />
    <trip id="veh_53" type="car" depart="3.40" from="e42_cw2ce" to="e42_ce2e" departLane="0" />
    <trip id="veh_54" type="car" depart="3.40" from="e25_n" to="e25_cs" departLane="0" />
    <trip id="veh_55" type="car" depart="3.62" from="e14_e" to="e14_cw" departLane="1" />
    <trip id="veh_56" type="car" depart="3.62" from="e43_n" to="e43_cs" departLane="1" />
    <trip id="veh_57" type="car" depart="3.65" from="e42_ce2cw" to="e42_cw2w" departLane="0" />
    <trip id="veh_58" type="car" depart="3.74" from="e33_main_e" to="e33_side_cs" departLane="2" />
    <trip id="veh_59" type="car" depart="3.94" from="e25_n" to="e25_ce" departLane="2" />
    <trip id="veh_60" type="car" depart="4.02" from="e14_s" to="e14_ce" departLane="1" />
    <trip id="veh_61" type="car" depart="4.07" from="e23_e" to="e23_cw" departLane="1" />
    <trip id="veh_62" type="car" depart="4.15" from="e24_s" to="e24_cw" departLane="2" />
    <trip id="veh_63" type="car" depart="4.16" from="e33_main_e" to="e33_side_cn" departLane="0" />
    <trip id="veh_64" type="car" depart="4.23" from="e11_s" to="e11_ce" departLane="0" />
    <trip id="veh_65" type="car" depart="4.30" from="e43_s" to="e43_cn" departLane="1" />
    <trip id="veh_66" type="car" depart="4.40" from="e12_s" to="e12_cw" departLane="0" />
    <trip id="veh_67" type="car" depart="4.44" from="e33_main_w" to="e33_side_cs" departLane="0" />
    <trip id="veh_68" type="car" depart="4.57" from="e43_e" to="e43_cw" departLane="1" />
    <trip id="veh_69" type="car" depart="4.59" from="e13_s" to="e13_ce" departLane="0" />
    <trip id="veh_70" type="car" depart="4.65" from="e14_w" to="e14_ce" departLane="1" />
    <trip id="veh_71" type="car" depart="4.69" from="e44_w" to="e44_ce" departLane="1" />
    <trip id="veh_72" type="car" depart="4.92" from="e11_w" to="e11_cs" departLane="0" />
    <trip id="veh_73" type="car" depart="4.95" from="e44_n" to="e44_cs" departLane="0" />
    <trip id="veh_74" type="car" depart="4.95" from="e24_n" to="e24_cs" departLane="1" />
    <trip id="veh_75" type="car" depart="5.00" from="e15_ne" to="e15_cnw" departLane="0" />
    <trip id="veh_76" type="car" depart="5.04" from="e45_n" to="e45_cw" departLane="0" />
    <trip id="veh_77" type="car" depart="5.06" from="e23_n" to="e23_cs" departLane="0" />
    <trip id="veh_78" type="car" depart="5.10" from="e41_n" to="e41_cw" departLane="0" />
    <trip id="veh_79" type="car" depart="5.18" from="e22_w" to="e22_cs" departLane="0" />
    <trip id="veh_80" type="car" depart="5.22" from="e31_side_n" to="e31_main_ce" departLane="0" />
    <trip id="veh_81" type="car" depart="5.25" from="e15_nw" to="e15_cs" departLane="1" />
    <trip id="veh_82" type="car" depart="5.34" from="e22_n" to="e22_cw" departLane="0" />
    <trip id="veh_83" type="car" depart="5.41" from="e45_e" to="e45_cs" departLane="1" />
    <trip id="veh_84" type="car" depart="5.43" from="e13_w" to="e13_cs" departLane="0" />
    <trip id="veh_85" type="car" depart="5.46" from="e35_main_w" to="e35_main_ce" departLane="2" />
    <trip id="veh_86" type="car" depart="5.49" from="e31_main_w" to="e31_side_cs" departLane="0" />
    <trip id="veh_87" type="car" depart="5.60" from="e42_s2cw" to="e42_cw2ce" departLane="0" />
    <trip id="veh_88" type="car" depart="5.62" from="e15_nw" to="e15_cs" departLane="0" />
    <trip id="veh_89" type="car" depart="5.71" from="e32_main_w" to="e32_main_ce" departLane="1" />
    <trip id="veh_90" type="car" depart="5.80" from="e34_main_w" to="e34_side_cs" departLane="0" />
    <trip id="veh_91" type="car" depart="5.86" from="e25_n" to="e25_cs" departLane="1" />
    <trip id="veh_92" type="car" depart="5.92" from="e15_s" to="e15_cne" departLane="0" />
    <trip id="veh_93" type="car" depart="6.00" from="e32_main_w" to="e32_side_cs" departLane="0" />
    <trip id="veh_94" type="car" depart="6.05" from="e24_n" to="e24_ce" departLane="2" />
    <trip id="veh_95" type="car" depart="6.07" from="e24_s" to="e24_cn" departLane="1" />
    <trip id="veh_96" type="car" depart="6.13" from="e33_main_w" to="e33_side_cn" departLane="2" />
    <trip id="veh_97" type="car" depart="6.14" from="e35_main_e" to="e35_main_cw" departLane="1" />
    <trip id="veh_98" type="car" depart="6.16" from="e34_main_w" to="e34_main_ce" departLane="1" />
    <trip id="veh_99" type="car" depart="6.39" from="e22_n" to="e22_ce" departLane="1" />
    <trip id="veh_100" type="car" depart="6.41" from="e45_n" to="e45_cs" departLane="1" />
    <trip id="veh_101" type="car" depart="6.46" from="e31_main_w" to="e31_main_ce" departLane="1" />
    <trip id="veh_102" type="car" depart="6.47" from="e14_s" to="e14_ce" departLane="0" />
    <trip id="veh_103" type="car" depart="6.51" from="e45_e" to="e45_cw" departLane="0" />
    <trip id="veh_104" type="car" depart="6.52" from="e35_main_e" to="e35_main_cw" departLane="0" />
    <trip id="veh_105" type="car" depart="6.66" from="e31_main_e" to="e31_side_cn" departLane="0" />
    <trip id="veh_106" type="car" depart="6.85" from="e41_w" to="e41_ce" departLane="1" />
    <trip id="veh_107" type="car" depart="6.89" from="e42_e2ce" to="e42_ce2cw" departLane="1" />
    <trip id="veh_108" type="car" depart="6.99" from="e24_e" to="e24_cw" departLane="1" />
    <trip id="veh_109" type="car" depart="7.13" from="e24_w" to="e24_ce" departLane="0" />
    <trip id="veh_110" type="car" depart="7.15" from="e35_side_n" to="e35_side_cs" departLane="1" />
    <trip id="veh_111" type="car" depart="7.47" from="e12_e" to="e12_cs" departLane="1" />
    <trip id="veh_112" type="car" depart="7.56" from="e22_e" to="e22_cn" departLane="0" />
    <trip id="veh_113" type="car" depart="7.57" from="e25_s" to="e25_cn" departLane="1" />
    <trip id="veh_114" type="car" depart="7.79" from="e25_e" to="e25_cw" departLane="2" />
    <trip id="veh_115" type="car" depart="7.91" from="e23_w" to="e23_ce" departLane="1" />
    <trip id="veh_116" type="car" depart="8.20" from="e25_s" to="e25_cw" departLane="2" />
    <trip id="veh_117" type="car" depart="8.42" from="e13_w" to="e13_ce" departLane="1" />
    <trip id="veh_118" type="car" depart="8.51" from="e44_w" to="e44_ce" departLane="0" />
    <trip id="veh_119" type="car" depart="8.59" from="e25_e" to="e25_cw" departLane="1" />
    <trip id="veh_120" type="car" depart="8.82" from="e12_e" to="e12_cw" departLane="0" />
    <trip id="veh_121" type="car" depart="9.08" from="e33_side_n" to="e33_side_cs" departLane="0" />
    <trip id="veh_122" type="car" depart="9.15" from="e45_s" to="e45_ce" departLane="0" />
    <trip id="veh_123" type="car" depart="9.33" from="e31_side_s" to="e31_side_cn" departLane="0" />
    <trip id="veh_124" type="car" depart="9.52" from="e43_n" to="e43_cw" departLane="0" />
    <trip id="veh_125" type="car" depart="9.73" from="e43_s" to="e43_cn" departLane="0" />
    <trip id="veh_126" type="car" depart="9.78" from="e14_e" to="e14_cw" departLane="0" />
    <trip id="veh_127" type="car" depart="9.98" from="e23_n" to="e23_cs" departLane="1" />
    <trip id="veh_128" type="car" depart="10.00" from="e42_w2cw" to="e42_cw2ce" departLane="1" />
    <trip id="veh_129" type="car" depart="10.12" from="e22_s" to="e22_cn" departLane="0" />
    <trip id="veh_130" type="car" depart="10.30" from="e21_n" to="e21_cw" departLane="0" />
    <trip id="veh_131" type="car" depart="10.31" from="e24_w" to="e24_cn" departLane="2" />
    <trip id="veh_132" type="car" depart="10.44" from="e24_e" to="e24_cw" departLane="0" />
    <trip id="veh_133" type="car" depart="10.45" from="e33_side_s" to="e33_main_cw" departLane="0" />
    <trip id="veh_134" type="car" depart="10.78" from="e32_main_e" to="e32_main_cw" departLane="1" />
    <trip id="veh_135" type="car" depart="10.93" from="e22_s" to="e22_cw" departLane="1" />
    <trip id="veh_136" type="car" depart="11.15" from="e14_w" to="e14_ce" departLane="2" />
    <trip id="veh_137" type="car" depart="11.30" from="e34_main_e" to="e34_main_cw" departLane="1" />
    <trip id="veh_138" type="car" depart="11.31" from="e34_main_e" to="e34_main_cw" departLane="0" />
    <trip id="veh_139" type="car" depart="11.44" from="e23_e" to="e23_cw" departLane="0" />
    <trip id="veh_140" type="car" depart="11.65" from="e42_e2ce" to="e42_ce2cw" departLane="0" />
    <trip id="veh_141" type="car" depart="12.22" from="e45_w" to="e45_ce" departLane="0" />
    <trip id="veh_142" type="car" depart="12.45" from="e24_s" to="e24_cw" departLane="2" />
    <trip id="veh_143" type="car" depart="12.56" from="e13_e" to="e13_cw" departLane="0" />
    <trip id="veh_144" type="car" depart="12.58" from="e22_w" to="e22_ce" departLane="0" />
    <trip id="veh_145" type="car" depart="12.82" from="e32_main_w" to="e32_main_ce" departLane="0" />
    <trip id="veh_146" type="car" depart="12.95" from="e14_w" to="e14_cs" departLane="0" />
    <trip id="veh_147" type="car" depart="13.04" from="e41_n" to="e41_cs" departLane="1" />
    <trip id="veh_148" type="car" depart="13.16" from="e32_main_w" to="e32_main_ce" departLane="2" />
    <trip id="veh_149" type="car" depart="13.30" from="e35_main_e" to="e35_main_cw" departLane="2" />
    <trip id="veh_150" type="car" depart="13.39" from="e15_s" to="e15_cnw" departLane="1" />
    <trip id="veh_151" type="car" depart="13.57" from="e11_w" to="e11_ce" departLane="0" />
    <trip id="veh_152" type="car" depart="13.63" from="e33_main_w" to="e33_side_cs" departLane="0" />
    <trip id="veh_153" type="car" depart="13.66" from="e35_side_s" to="e35_side_cn" departLane="1" />
    <trip id="veh_154" type="car" depart="13.86" from="e44_w" to="e44_ce" departLane="1" />
    <trip id="veh_155" type="car" depart="13.90" from="e23_s" to="e23_cn" departLane="1" />
    <trip id="veh_156" type="car" depart="13.97" from="e41_e" to="e41_cw" departLane="1" />
    <trip id="veh_157" type="car" depart="14.13" from="e24_n" to="e24_cs" departLane="1" />
    <trip id="veh_158" type="car" depart="14.25" from="e35_main_w" to="e35_main_ce" departLane="2" />
    <trip id="veh_159" type="car" depart="14.27" from="e43_w" to="e43_ce" departLane="0" />
    <trip id="veh_160" type="car" depart="14.36" from="e44_n" to="e44_cs" departLane="1" />
    <trip id="veh_161" type="car" depart="14.43" from="e24_s" to="e24_cn" departLane="1" />
    <trip id="veh_162" type="car" depart="14.68" from="e33_main_e" to="e33_main_cw" departLane="1" />
    <trip id="veh_163" type="car" depart="14.77" from="e41_e" to="e41_cw" departLane="0" />
    <trip id="veh_164" type="car" depart="14.86" from="e32_side_s" to="e32_main_ce" departLane="0" />
    <trip id="veh_165" type="car" depart="14.87" from="e14_e" to="e14_cw" departLane="2" />
    <trip id="veh_166" type="car" depart="15.02" from="e41_s" to="e41_cn" departLane="1" />
    <trip id="veh_167" type="car" depart="15.17" from="e41_n" to="e41_cs" departLane="0" />
    <trip id="veh_168" type="car" depart="15.32" from="e25_w.89" to="e25_cn" departLane="1" />
    <trip id="veh_169" type="car" depart="15.52" from="e42_cw2ce" to="e42_ce2n" departLane="1" />
    <trip id="veh_170" type="car" depart="15.53" from="e14_w" to="e14_ce" departLane="1" />
    <trip id="veh_171" type="car" depart="15.71" from="e45_e" to="e45_cw" departLane="0" />
    <trip id="veh_172" type="car" depart="15.90" from="e31_main_w" to="e31_side_cs" departLane="0" />
    <trip id="veh_173" type="car" depart="15.90" from="e41_w" to="e41_ce" departLane="1" />
    <trip id="veh_174" type="car" depart="15.98" from="e24_e" to="e24_cs" departLane="2" />
    <trip id="veh_175" type="car" depart="16.03" from="e33_main_w" to="e33_main_ce" departLane="1" />
    <trip id="veh_176" type="car" depart="16.11" from="e31_side_n" to="e31_main_ce" departLane="0" />
    <trip id="veh_177" type="car" depart="16.14" from="e24_w" to="e24_ce" departLane="1" />
    <trip id="veh_178" type="car" depart="16.22" from="e42_cw2ce" to="e42_ce2e" departLane="0" />
    <trip id="veh_179" type="car" depart="16.29" from="e43_e" to="e43_cn" departLane="0" />
    <trip id="veh_180" type="car" depart="16.30" from="e12_w" to="e12_cs" departLane="0" />
    <trip id="veh_181" type="car" depart="16.31" from="e34_side_s" to="e34_side_cn" departLane="0" />
    <trip id="veh_182" type="car" depart="16.37" from="e21_e" to="e21_cs" departLane="0" />
    <trip id="veh_183" type="car" depart="16.50" from="e42_ce2cw" to="e42_cw2w" departLane="0" />
    <trip id="veh_184" type="car" depart="16.58" from="e25_s" to="e25_cn" departLane="0" />
    <trip id="veh_185" type="car" depart="16.70" from="e31_main_e" to="e31_main_cw" departLane="1" />
    <trip id="veh_186" type="car" depart="16.71" from="e12_s" to="e12_cw" departLane="0" />
    <trip id="veh_187" type="car" depart="16.74" from="e42_n2ce" to="e42_ce2e" departLane="0" />
    <trip id="veh_188" type="car" depart="16.76" from="e45_e" to="e45_cs" departLane="1" />
    <trip id="veh_189" type="car" depart="16.80" from="e13_s" to="e13_ce" departLane="1" />
    <trip id="veh_190" type="car" depart="17.01" from="e45_n" to="e45_cs" departLane="0" />
    <trip id="veh_191" type="car" depart="17.01" from="e35_main_e" to="e35_main_cw" departLane="0" />
    <trip id="veh_192" type="car" depart="17.25" from="e34_main_w" to="e34_main_ce" departLane="0" />
    <trip id="veh_193" type="car" depart="17.32" from="e44_n" to="e44_cs" departLane="0" />
    <trip id="veh_194" type="car" depart="17.33" from="e25_n" to="e25_cs" departLane="0" />
    <trip id="veh_195" type="car" depart="17.38" from="e24_w" to="e24_ce" departLane="0" />
    <trip id="veh_196" type="car" depart="17.54" from="e43_s" to="e43_cn" departLane="1" />
    <trip id="veh_197" type="car" depart="17.58" from="e33_main_e" to="e33_side_cs" departLane="2" />
    <trip id="veh_198" type="car" depart="17.62" from="e43_n" to="e43_cs" departLane="1" />
    <trip id="veh_199" type="car" depart="17.68" from="e12_w" to="e12_ce" departLane="1" />
    <trip id="veh_200" type="car" depart="17.69" from="e14_e" to="e14_cw" departLane="1" />
    <trip id="veh_201" type="car" depart="17.80" from="e13_s" to="e13_ce" departLane="0" />
    <trip id="veh_202" type="car" depart="18.15" from="e14_s" to="e14_ce" departLane="0" />
    <trip id="veh_203" type="car" depart="18.20" from="e33_main_e" to="e33_main_cw" departLane="0" />
    <trip id="veh_204" type="car" depart="18.26" from="e35_side_s" to="e35_main_ce" departLane="0" />
    <trip id="veh_205" type="car" depart="18.30" from="e45_s" to="e45_cn" departLane="1" />
    <trip id="veh_206" type="car" depart="18.43" from="e35_main_w" to="e35_main_ce" departLane="1" />
    <trip id="veh_207" type="car" depart="18.89" from="e34_side_n" to="e34_side_cs" departLane="0" />
    <trip id="veh_208" type="car" depart="18.94" from="e13_e" to="e13_cs" departLane="1" />
    <trip id="veh_209" type="car" depart="19.04" from="e31_main_e" to="e31_main_cw" departLane="0" />
    <trip id="veh_210" type="car" depart="19.25" from="e11_e" to="e11_cw" departLane="0" />
    <trip id="veh_211" type="car" depart="19.36" from="e32_main_e" to="e32_main_cw" departLane="0" />
    <trip id="veh_212" type="car" depart="19.42" from="e33_main_w" to="e33_side_cn" departLane="2" />
    <trip id="veh_213" type="car" depart="19.53" from="e21_s" to="e21_cn" departLane="0" />
    <trip id="veh_214" type="car" depart="19.55" from="e32_main_e" to="e32_main_cw" departLane="2" />
    <trip id="veh_215" type="car" depart="19.56" from="e22_n" to="e22_cs" departLane="0" />
    <trip id="veh_216" type="car" depart="19.59" from="e22_n" to="e22_ce" departLane="1" />
    <trip id="veh_217" type="car" depart="19.70" from="e24_n" to="e24_ce" departLane="2" />
    <trip id="veh_218" type="car" depart="19.92" from="e25_e" to="e25_cw" departLane="0" />
    <trip id="veh_219" type="car" depart="19.96" from="e31_side_s" to="e31_main_cw" departLane="0" />
    <trip id="veh_220" type="car" depart="20.02" from="e23_n" to="e23_cs" departLane="0" />
    <trip id="veh_221" type="car" depart="20.40" from="e23_e" to="e23_cw" departLane="1" />
    <trip id="veh_222" type="car" depart="20.45" from="e41_s" to="e41_cn" departLane="0" />
    <trip id="veh_223" type="car" depart="20.57" from="e23_s" to="e23_ce" departLane="0" />
    <trip id="veh_224" type="car" depart="20.81" from="e42_w2cw" to="e42_cw2ce" departLane="0" />
    <trip id="veh_225" type="car" depart="20.93" from="e42_s2cw" to="e42_cw2ce" departLane="0" />
    <trip id="veh_226" type="car" depart="20.99" from="e25_e" to="e25_cw" departLane="2" />
    <trip id="veh_227" type="car" depart="21.08" from="e14_e" to="e14_cw" departLane="0" />
    <trip id="veh_228" type="car" depart="21.10" from="e42_e2ce" to="e42_ce2cw" departLane="1" />
    <trip id="veh_229" type="car" depart="21.37" from="e15_nw" to="e15_cs" departLane="0" />
    <trip id="veh_230" type="car" depart="21.70" from="e14_s" to="e14_cw" departLane="2" />
    <trip id="veh_231" type="car" depart="21.75" from="e21_w" to="e21_cn" departLane="0" />
    <trip id="veh_232" type="car" depart="21.78" from="e15_ne" to="e15_cs" departLane="0" />
    <trip id="veh_233" type="car" depart="21.93" from="e32_main_w" to="e32_main_ce" departLane="1" />
    <trip id="veh_234" type="car" depart="22.01" from="e22_e" to="e22_cs" departLane="1" />
    <trip id="veh_235" type="car" depart="22.02" from="e13_w" to="e13_cs" departLane="0" />
    <trip id="veh_236" type="car" depart="22.08" from="e45_n" to="e45_ce" departLane="1" />
    <trip id="veh_237" type="car" depart="22.32" from="e24_s" to="e24_ce" departLane="0" />
    <trip id="veh_238" type="car" depart="22.34" from="e22_w" to="e22_cn" departLane="1" />
    <trip id="veh_239" type="car" depart="22.50" from="e32_side_n" to="e32_main_ce" departLane="0" />
    <trip id="veh_240" type="car" depart="22.62" from="e11_s" to="e11_ce" departLane="0" />
    <trip id="veh_241" type="car" depart="22.78" from="e42_ce2cw" to="e42_cw2s" departLane="1" />
    <trip id="veh_242" type="car" depart="23.25" from="e43_n" to="e43_cw" departLane="0" />
    <trip id="veh_243" type="car" depart="23.57" from="e44_w" to="e44_ce" departLane="0" />
    <trip id="veh_244" type="car" depart="23.70" from="e15_nw" to="e15_cs" departLane="1" />
    <trip id="veh_245" type="car" depart="24.17" from="e23_w" to="e23_ce" departLane="1" />
    <trip id="veh_246" type="car" depart="24.89" from="e15_s" to="e15_cne" departLane="0" />
    <trip id="veh_247" type="car" depart="24.90" from="e35_main_w" to="e35_side_cs" departLane="0" />
    <trip id="veh_248" type="car" depart="25.03" from="e42_cw2ce" to="e42_ce2e" departLane="0" />
    <trip id="veh_249" type="car" depart="25.07" from="e25_w.89" to="e25_ce" departLane="0" />
    <trip id="veh_250" type="car" depart="25.07" from="e33_main_w" to="e33_main_ce" departLane="0" />
    <trip id="veh_251" type="car" depart="25.18" from="e23_w" to="e23_ce" departLane="0" />
    <trip id="veh_252" type="car" depart="25.39" from="e35_main_w" to="e35_main_ce" departLane="2" />
    <trip id="veh_253" type="car" depart="25.48" from="e11_w" to="e11_cs" departLane="0" />
    <trip id="veh_254" type="car" depart="25.69" from="e13_s" to="e13_ce" departLane="1" />
    <trip id="veh_255" type="car" depart="26.07" from="e43_s" to="e43_cn" departLane="1" />
    <trip id="veh_256" type="car" depart="26.07" from="e25_n" to="e25_cs" departLane="1" />
    <trip id="veh_257" type="car" depart="26.14" from="e34_main_w" to="e34_main_ce" departLane="1" />
    <trip id="veh_258" type="car" depart="26.22" from="e25_n" to="e25_cs" departLane="0" />
    <trip id="veh_259" type="car" depart="26.44" from="e13_e" to="e13_cw" departLane="0" />
    <trip id="veh_260" type="car" depart="26.80" from="e24_s" to="e24_cw" departLane="2" />
    <trip id="veh_261" type="car" depart="27.00" from="e12_w" to="e12_cs" departLane="0" />
    <trip id="veh_262" type="car" depart="27.26" from="e33_main_e" to="e33_side_cn" departLane="0" />
    <trip id="veh_263" type="car" depart="27.31" from="e24_w" to="e24_cn" departLane="2" />
    <trip id="veh_264" type="car" depart="27.35" from="e32_main_w" to="e32_main_ce" departLane="2" />
    <trip id="veh_265" type="car" depart="27.46" from="e25_e" to="e25_cw" departLane="1" />
    <trip id="veh_266" type="car" depart="27.47" from="e31_main_e" to="e31_main_cw" departLane="1" />
    <trip id="veh_267" type="car" depart="27.50" from="e33_main_w" to="e33_side_cn" departLane="2" />
    <trip id="veh_268" type="car" depart="27.70" from="e45_w" to="e45_cs" departLane="0" />
    <trip id="veh_269" type="car" depart="27.71" from="e35_main_w" to="e35_main_ce" departLane="1" />
    <trip id="veh_270" type="car" depart="27.73" from="e45_s" to="e45_cw" departLane="1" />
    <trip id="veh_271" type="car" depart="27.74" from="e34_side_n" to="e34_main_cw" departLane="0" />
    <trip id="veh_272" type="car" depart="27.84" from="e25_w.89" to="e25_ce" departLane="1" />
    <trip id="veh_273" type="car" depart="27.96" from="e24_n" to="e24_cs" departLane="1" />
    <trip id="veh_274" type="car" depart="28.02" from="e33_side_n" to="e33_main_cw" departLane="0" />
    <trip id="veh_275" type="car" depart="28.36" from="e42_ce2cw" to="e42_cw2w" departLane="0" />
    <trip id="veh_276" type="car" depart="28.37" from="e45_s" to="e45_ce" departLane="0" />
    <trip id="veh_277" type="car" depart="28.41" from="e13_e" to="e13_cs" departLane="1" />
    <trip id="veh_278" type="car" depart="28.55" from="e24_e" to="e24_cw" departLane="0" />
    <trip id="veh_279" type="car" depart="28.73" from="e12_s" to="e12_cw" departLane="0" />
    <trip id="veh_280" type="car" depart="28.89" from="e22_w" to="e22_ce" departLane="0" />
    <trip id="veh_281" type="car" depart="29.03" from="e14_w" to="e14_cs" departLane="0" />
    <trip id="veh_282" type="car" depart="29.09" from="e42_cw2ce" to="e42_ce2n" departLane="1" />
    <trip id="veh_283" type="car" depart="29.14" from="e32_main_e" to="e32_main_cw" departLane="1" />
    <trip id="veh_284" type="car" depart="29.22" from="e32_main_w" to="e32_side_cs" departLane="0" />
    <trip id="veh_285" type="car" depart="29.25" from="e41_e" to="e41_cw" departLane="1" />
    <trip id="veh_286" type="car" depart="29.33" from="e44_n" to="e44_ce" departLane="1" />
    <trip id="veh_287" type="car" depart="29.34" from="e31_main_w" to="e31_main_ce" departLane="1" />
    <trip id="veh_288" type="car" depart="29.40" from="e25_n" to="e25_ce" departLane="2" />
    <trip id="veh_289" type="car" depart="29.58" from="e33_main_e" to="e33_main_cw" departLane="1" />
    <trip id="veh_290" type="car" depart="29.63" from="e35_main_e" to="e35_main_cw" departLane="2" />
    <trip id="veh_291" type="car" depart="29.83" from="e41_s" to="e41_ce" departLane="0" />
    <trip id="veh_292" type="car" depart="29.83" from="e15_s" to="e15_cnw" departLane="1" />
    <trip id="veh_293" type="car" depart="29.97" from="e44_w" to="e44_ce" departLane="1" />
    <trip id="veh_294" type="car" depart="29.97" from="e14_e" to="e14_cw" departLane="2" />
    <trip id="veh_295" type="car" depart="30.07" from="e12_e" to="e12_cw" departLane="0" />
    <trip id="veh_296" type="car" depart="30.24" from="e41_s" to="e41_cn" departLane="1" />
    <trip id="veh_297" type="car" depart="30.49" from="e42_n2ce" to="e42_ce2cw" departLane="0" />
    <trip id="veh_298" type="car" depart="30.50" from="e22_s" to="e22_cw" departLane="1" />
    <trip id="veh_299" type="car" depart="30.62" from="e41_n" to="e41_cw" departLane="0" />
    <trip id="veh_300" type="car" depart="30.67" from="e31_main_e" to="e31_side_cn" departLane="0" />
    <trip id="veh_301" type="car" depart="30.71" from="e22_s" to="e22_cn" departLane="0" />
    <trip id="veh_302" type="car" depart="30.72" from="e43_n" to="e43_cs" departLane="1" />
    <trip id="veh_303" type="car" depart="30.83" from="e14_e" to="e14_cw" departLane="1" />
    <trip id="veh_304" type="car" depart="31.08" from="e23_s" to="e23_cn" departLane="1" />
    <trip id="veh_305" type="car" depart="31.16" from="e23_e" to="e23_cw" departLane="0" />
    <trip id="veh_306" type="car" depart="31.28" from="e35_side_n" to="e35_side_cs" departLane="1" />
    <trip id="veh_307" type="car" depart="31.31" from="e41_e" to="e41_cw" departLane="0" />
    <trip id="veh_308" type="car" depart="31.35" from="e44_n" to="e44_cs" departLane="0" />
    <trip id="veh_309" type="car" depart="31.43" from="e42_ce2cw" to="e42_cw2w" departLane="1" />
    <trip id="veh_310" type="car" depart="31.51" from="e41_w" to="e41_ce" departLane="0" />
    <trip id="veh_311" type="car" depart="31.65" from="e43_e" to="e43_cw" departLane="1" />
    <trip id="veh_312" type="car" depart="31.78" from="e45_e" to="e45_cw" departLane="0" />
    <trip id="veh_313" type="car" depart="31.84" from="e14_w" to="e14_ce" departLane="2" />
    <trip id="veh_314" type="car" depart="31.92" from="e24_n" to="e24_cw" departLane="0" />
    <trip id="veh_315" type="car" depart="32.01" from="e33_main_w" to="e33_main_ce" departLane="1" />