<?xml version="1.0" encoding="UTF-8"?>

<!-- generated on 2025-12-20 00:56:35 by Eclipse SUMO netedit Version 1.19.0
<configuration xmlns:xsi="http://www.w3.org/2001/XMLSchema-instance" xsi:noNamespaceSchemaLocation="http://sumo.dlr.de/xsd/neteditConfiguration.xsd">

    <input>
        <sumo-net-file value="Z:\Documents\Munka\cikkek\AI_agens_konyvtar\finish\mega_catalogue_v2.net.xml"/>
    </input>

    <output>
        <output-file value="Z:\Documents\Munka\cikkek\AI_agens_konyvtar\finish\mega_catalogue_v2.net.xml"/>
    </output>

    <processing>
        <geometry.min-radius.fix.railways value="false"/>
        <geometry.max-grade.fix value="false"/>
        <offset.disable-normalization value="true"/>
        <lefthand value="0"/>
    </processing>

    <junctions>
        <no-turnarounds value="true"/>
        <junctions.corner-detail value="5"/>
        <junctions.limit-turn-speed value="5.50"/>
        <rectangular-lane-cut value="0"/>
    </junctions>

    <pedestrian>
        <walkingareas value="0"/>
    </pedestrian>

</configuration>
-->

<net version="1.16" junctionCornerDetail="5" limitTurnSpeed="5.50" xmlns:xsi="http://www.w3.org/2001/XMLSchema-instance" xsi:noNamespaceSchemaLocation="http://sumo.dlr.de/xsd/net_file.xsd">

    <location netOffset="100.00,100.00" convBoundary="0.00,0.00,2250.00,1670.00" origBoundary="-100.00,-100.00,2150.00,1570.00" projParameter="!"/>

    <edge id=":R1C1_C_0" function="internal">
        <lane id=":R1C1_C_0_0" index="0" speed="13.89" length="14.40" shape="107.20,1601.60 92.80,1601.60"/>
    </edge>
    <edge id=":R1C1_C_1" function="internal">
        <lane id=":R1C1_C_1_0" index="0" speed="8.00" length="4.07" shape="107.20,1601.60 103.35,1601.05 103.20,1600.96"/>
    </edge>
    <edge id=":R1C1_C_6" function="internal">
        <lane id=":R1C1_C_6_0" index="0" speed="8.00" length="10.13" shape="103.20,1600.96 100.60,1599.40 98.95,1596.65 98.40,1592.80"/>
    </edge>
    <edge id=":R1C1_C_2" function="internal">
        <lane id=":R1C1_C_2_0" index="0" speed="6.51" length="9.03" shape="101.60,1592.80 101.95,1595.25 103.00,1597.00 104.75,1598.05 107.20,1598.40"/>
    </edge>
    <edge id=":R1C1_C_3" function="internal">
        <lane id=":R1C1_C_3_0" index="0" speed="8.00" length="14.19" shape="101.60,1592.80 101.05,1596.65 99.40,1599.40 96.65,1601.05 92.80,1601.60"/>
    </edge>
    <edge id=":R1C1_C_4" function="internal">
        <lane id=":R1C1_C_4_0" index="0" speed="6.51" length="9.03" shape="92.80,1598.40 95.25,1598.05 97.00,1597.00 98.05,1595.25 98.40,1592.80"/>
    </edge>
    <edge id=":R1C1_C_5" function="internal">
        <lane id=":R1C1_C_5_0" index="0" speed="13.89" length="14.40" shape="92.80,1598.40 107.20,1598.40"/>
    </edge>
    <edge id=":R1C2_C_0" function="internal">
        <lane id=":R1C2_C_0_0" index="0" speed="13.89" length="14.83" shape="607.20,1604.80 602.54,1604.30 599.11,1603.20 596.12,1602.10 592.80,1601.60"/>
    </edge>
    <edge id=":R1C2_C_1" function="internal">
        <lane id=":R1C2_C_1_0" index="0" speed="8.67" length="3.71" shape="607.20,1601.60 603.56,1600.89"/>
    </edge>
    <edge id=":R1C2_C_6" function="internal">
        <lane id=":R1C2_C_6_0" index="0" speed="8.67" length="13.14" shape="603.56,1600.89 603.35,1600.85 600.60,1598.60 598.95,1594.85 598.40,1589.60"/>
    </edge>
    <edge id=":R1C2_C_2" function="internal">
        <lane id=":R1C2_C_2_0" index="0" speed="7.33" length="11.73" shape="601.60,1589.60 601.95,1593.45 603.00,1596.20 604.75,1597.85 607.20,1598.40"/>
    </edge>
    <edge id=":R1C2_C_3" function="internal">
        <lane id=":R1C2_C_3_0" index="0" speed="8.67" length="16.85" shape="601.60,1589.60 601.05,1594.85 599.40,1598.60 596.65,1600.85 592.80,1601.60"/>
    </edge>
    <edge id=":R1C2_C_4" function="internal">
        <lane id=":R1C2_C_4_0" index="0" speed="6.51" length="9.03" shape="592.80,1595.20 595.25,1594.85 597.00,1593.80 598.05,1592.05 598.40,1589.60"/>
    </edge>
    <edge id=":R1C2_C_5" function="internal">
        <lane id=":R1C2_C_5_0" index="0" speed="13.89" length="14.40" shape="592.80,1598.40 607.20,1598.40"/>
    </edge>
    <edge id=":R1C3_C_0" function="internal">
        <lane id=":R1C3_C_0_0" index="0" speed="13.89" length="20.80" shape="1110.40,1604.80 1089.60,1604.80"/>
        <lane id=":R1C3_C_0_1" index="1" speed="13.89" length="20.80" shape="1110.40,1601.60 1089.60,1601.60"/>
    </edge>
    <edge id=":R1C3_C_2" function="internal">
        <lane id=":R1C3_C_2_0" index="0" speed="9.26" length="5.01" shape="1110.40,1601.60 1105.44,1600.89"/>
    </edge>
    <edge id=":R1C3_C_9" function="internal">
        <lane id=":R1C3_C_9_0" index="0" speed="9.26" length="14.34" shape="1105.44,1600.89 1105.15,1600.85 1101.40,1598.60 1099.15,1594.85 1098.40,1589.60"/>
    </edge>
    <edge id=":R1C3_C_3" function="internal">
        <lane id=":R1C3_C_3_0" index="0" speed="6.51" length="9.03" shape="1104.80,1589.60 1105.15,1592.05 1106.20,1593.80 1107.95,1594.85 1110.40,1595.20"/>
        <lane id=":R1C3_C_3_1" index="1" speed="8.00" length="14.19" shape="1101.60,1589.60 1102.15,1593.45 1103.80,1596.20 1106.55,1597.85 1110.40,1598.40"/>
    </edge>
    <edge id=":R1C3_C_5" function="internal">
        <lane id=":R1C3_C_5_0" index="0" speed="9.26" length="19.35" shape="1101.60,1589.60 1100.85,1594.85 1098.60,1598.60 1094.85,1600.85 1089.60,1601.60"/>
    </edge>
    <edge id=":R1C3_C_6" function="internal">
        <lane id=":R1C3_C_6_0" index="0" speed="6.51" length="9.03" shape="1089.60,1595.20 1092.05,1594.85 1093.80,1593.80 1094.85,1592.05 1095.20,1589.60"/>
    </edge>
    <edge id=":R1C3_C_7" function="internal">
        <lane id=":R1C3_C_7_0" index="0" speed="13.89" length="20.80" shape="1089.60,1595.20 1110.40,1595.20"/>
        <lane id=":R1C3_C_7_1" index="1" speed="13.89" length="20.80" shape="1089.60,1598.40 1110.40,1598.40"/>
    </edge>
    <edge id=":R1C4_C_0" function="internal">
        <lane id=":R1C4_C_0_0" index="0" speed="13.89" length="27.20" shape="1613.60,1608.00 1586.40,1608.00"/>
        <lane id=":R1C4_C_0_1" index="1" speed="13.89" length="27.20" shape="1613.60,1604.80 1586.40,1604.80"/>
        <lane id=":R1C4_C_0_2" index="2" speed="13.89" length="27.20" shape="1613.60,1601.60 1586.40,1601.60"/>
    </edge>
    <edge id=":R1C4_C_3" function="internal">
        <lane id=":R1C4_C_3_0" index="0" speed="10.88" length="6.03" shape="1613.60,1601.60 1607.62,1600.89"/>
        <lane id=":R1C4_C_3_1" index="1" speed="10.36" length="5.01" shape="1613.60,1601.60 1608.64,1600.89"/>
    </edge>
    <edge id=":R1C4_C_15" function="internal">
        <lane id=":R1C4_C_15_0" index="0" speed="10.88" length="21.12" shape="1607.62,1600.89 1605.55,1600.65 1599.80,1597.80 1596.35,1593.05 1595.20,1586.40"/>
    </edge>
    <edge id=":R1C4_C_16" function="internal">
        <lane id=":R1C4_C_16_0" index="0" speed="10.36" length="19.50" shape="1608.64,1600.89 1606.95,1600.65 1602.20,1597.80 1599.35,1593.05 1598.40,1586.40"/>
    </edge>
    <edge id=":R1C4_C_5" function="internal">
        <lane id=":R1C4_C_5_0" index="0" speed="6.51" length="9.03" shape="1608.00,1586.40 1608.35,1588.85 1609.40,1590.60 1611.15,1591.65 1613.60,1592.00"/>
        <lane id=":R1C4_C_5_1" index="1" speed="8.00" length="14.19" shape="1604.80,1586.40 1605.35,1590.25 1607.00,1593.00 1609.75,1594.65 1613.60,1595.20"/>
        <lane id=":R1C4_C_5_2" index="2" speed="8.67" length="16.85" shape="1604.80,1586.40 1605.35,1591.65 1607.00,1595.40 1609.75,1597.65 1613.60,1598.40"/>
    </edge>
    <edge id=":R1C4_C_8" function="internal">
        <lane id=":R1C4_C_8_0" index="0" speed="11.39" length="29.85" shape="1601.60,1586.40 1600.65,1595.85 1597.80,1602.60 1593.05,1606.65 1586.40,1608.00"/>
        <lane id=":R1C4_C_8_1" index="1" speed="10.88" length="27.14" shape="1601.60,1586.40 1600.65,1594.45 1597.80,1600.20 1593.05,1603.65 1586.40,1604.80"/>
        <lane id=":R1C4_C_8_2" index="2" speed="10.36" length="24.51" shape="1601.60,1586.40 1600.65,1593.05 1597.80,1597.80 1593.05,1600.65 1586.40,1601.60"/>
    </edge>
    <edge id=":R1C4_C_11" function="internal">
        <lane id=":R1C4_C_11_0" index="0" speed="6.51" length="9.03" shape="1586.40,1592.00 1588.85,1591.65 1590.60,1590.60 1591.65,1588.85 1592.00,1586.40"/>
    </edge>
    <edge id=":R1C4_C_12" function="internal">
        <lane id=":R1C4_C_12_0" index="0" speed="13.89" length="27.20" shape="1586.40,1592.00 1613.60,1592.00"/>
        <lane id=":R1C4_C_12_1" index="1" speed="13.89" length="27.20" shape="1586.40,1595.20 1613.60,1595.20"/>
        <lane id=":R1C4_C_12_2" index="2" speed="13.89" length="27.20" shape="1586.40,1598.40 1613.60,1598.40"/>
    </edge>
    <edge id=":R1C5_C_0" function="internal">
        <lane id=":R1C5_C_0_0" index="0" speed="6.51" length="9.03" shape="2106.22,1608.49 2104.24,1607.00 2102.26,1606.51 2100.28,1607.00 2098.30,1608.49"/>
    </edge>
    <edge id=":R1C5_C_1" function="internal">
        <lane id=":R1C5_C_1_0" index="0" speed="13.70" length="17.45" shape="2106.22,1608.49 2102.80,1604.61 2100.36,1600.79 2098.89,1597.04 2098.40,1593.35"/>
    </edge>
    <edge id=":R1C5_C_2" function="internal">
        <lane id=":R1C5_C_2_0" index="0" speed="12.18" length="13.70" shape="2104.80,1593.35 2105.03,1597.60 2105.72,1601.16 2106.87,1604.04 2108.49,1606.22"/>
    </edge>
    <edge id=":R1C5_C_3" function="internal">
        <lane id=":R1C5_C_3_0" index="0" speed="13.49" length="16.90" shape="2104.80,1593.35 2104.39,1597.53 2103.18,1601.45 2101.15,1605.10 2098.30,1608.49"/>
        <lane id=":R1C5_C_3_1" index="1" speed="12.47" length="14.39" shape="2101.60,1593.35 2101.25,1596.90 2100.21,1600.22 2098.47,1603.33 2096.04,1606.22"/>
    </edge>
    <edge id=":R1C5_C_5" function="internal">
        <lane id=":R1C5_C_5_0" index="0" speed="10.14" length="9.36" shape="2091.51,1601.70 2093.13,1599.79 2094.28,1597.77 2094.97,1595.62 2095.20,1593.35"/>
        <lane id=":R1C5_C_5_1" index="1" speed="11.36" length="11.88" shape="2093.78,1603.96 2095.80,1601.56 2097.24,1599.00 2098.11,1596.26 2098.40,1593.35"/>
    </edge>
    <edge id=":R1C5_C_7" function="internal">
        <lane id=":R1C5_C_7_0" index="0" speed="8.67" length="2.63" shape="2093.78,1603.96 2095.96,1602.49"/>
    </edge>
    <edge id=":R1C5_C_8" function="internal">
        <lane id=":R1C5_C_8_0" index="0" speed="8.67" length="14.22" shape="2095.96,1602.49 2097.03,1601.77 2100.57,1601.41 2104.38,1602.90 2108.49,1606.22"/>
    </edge>
    <edge id=":R2C1_C_0" function="internal">
        <lane id=":R2C1_C_0_0" index="0" speed="6.51" length="9.03" shape="98.40,1107.20 98.05,1104.75 97.00,1103.00 95.25,1101.95 92.80,1101.60"/>
    </edge>
    <edge id=":R2C1_C_1" function="internal">
        <lane id=":R2C1_C_1_0" index="0" speed="13.89" length="14.40" shape="98.40,1107.20 98.40,1092.80"/>
    </edge>
    <edge id=":R2C1_C_2" function="internal">
        <lane id=":R2C1_C_2_0" index="0" speed="8.00" length="4.07" shape="98.40,1107.20 98.95,1103.35 99.04,1103.20"/>
    </edge>
    <edge id=":R2C1_C_12" function="internal">
        <lane id=":R2C1_C_12_0" index="0" speed="8.00" length="10.13" shape="99.04,1103.20 100.60,1100.60 103.35,1098.95 107.20,1098.40"/>
    </edge>
    <edge id=":R2C1_C_3" function="internal">
        <lane id=":R2C1_C_3_0" index="0" speed="6.51" length="9.03" shape="107.20,1101.60 104.75,1101.95 103.00,1103.00 101.95,1104.75 101.60,1107.20"/>
    </edge>
    <edge id=":R2C1_C_4" function="internal">
        <lane id=":R2C1_C_4_0" index="0" speed="13.89" length="14.40" shape="107.20,1101.60 92.80,1101.60"/>
    </edge>
    <edge id=":R2C1_C_5" function="internal">
        <lane id=":R2C1_C_5_0" index="0" speed="8.00" length="4.07" shape="107.20,1101.60 103.35,1101.05 103.20,1100.96"/>
    </edge>
    <edge id=":R2C1_C_13" function="internal">
        <lane id=":R2C1_C_13_0" index="0" speed="8.00" length="10.13" shape="103.20,1100.96 100.60,1099.40 98.95,1096.65 98.40,1092.80"/>
    </edge>
    <edge id=":R2C1_C_6" function="internal">
        <lane id=":R2C1_C_6_0" index="0" speed="6.51" length="9.03" shape="101.60,1092.80 101.95,1095.25 103.00,1097.00 104.75,1098.05 107.20,1098.40"/>
    </edge>
    <edge id=":R2C1_C_7" function="internal">
        <lane id=":R2C1_C_7_0" index="0" speed="13.89" length="14.40" shape="101.60,1092.80 101.60,1107.20"/>
    </edge>
    <edge id=":R2C1_C_8" function="internal">
        <lane id=":R2C1_C_8_0" index="0" speed="8.00" length="4.07" shape="101.60,1092.80 101.05,1096.65 100.96,1096.80"/>
    </edge>
    <edge id=":R2C1_C_14" function="internal">
        <lane id=":R2C1_C_14_0" index="0" speed="8.00" length="10.13" shape="100.96,1096.80 99.40,1099.40 96.65,1101.05 92.80,1101.60"/>
    </edge>
    <edge id=":R2C1_C_9" function="internal">
        <lane id=":R2C1_C_9_0" index="0" speed="6.51" length="9.03" shape="92.80,1098.40 95.25,1098.05 97.00,1097.00 98.05,1095.25 98.40,1092.80"/>
    </edge>
    <edge id=":R2C1_C_10" function="internal">
        <lane id=":R2C1_C_10_0" index="0" speed="13.89" length="14.40" shape="92.80,1098.40 107.20,1098.40"/>
    </edge>
    <edge id=":R2C1_C_11" function="internal">
        <lane id=":R2C1_C_11_0" index="0" speed="8.00" length="4.07" shape="92.80,1098.40 96.65,1098.95 96.80,1099.04"/>
    </edge>
    <edge id=":R2C1_C_15" function="internal">
        <lane id=":R2C1_C_15_0" index="0" speed="8.00" length="10.13" shape="96.80,1099.04 99.40,1100.60 101.05,1103.35 101.60,1107.20"/>
    </edge>
    <edge id=":R2C2_C_0" function="internal">
        <lane id=":R2C2_C_0_0" index="0" speed="7.33" length="11.73" shape="595.20,1110.40 594.85,1106.55 593.80,1103.80 592.05,1102.15 589.60,1101.60"/>
    </edge>
    <edge id=":R2C2_C_1" function="internal">
        <lane id=":R2C2_C_1_0" index="0" speed="13.89" length="21.09" shape="595.20,1110.40 595.70,1103.63 596.80,1098.12 597.90,1093.55 598.40,1089.60"/>
    </edge>
    <edge id=":R2C2_C_2" function="internal">
        <lane id=":R2C2_C_2_0" index="0" speed="9.26" length="7.32" shape="598.40,1110.40 599.15,1105.15 600.19,1103.42"/>
    </edge>
    <edge id=":R2C2_C_12" function="internal">
        <lane id=":R2C2_C_12_0" index="0" speed="9.26" length="12.03" shape="600.19,1103.42 601.40,1101.40 605.15,1099.15 610.40,1098.40"/>
    </edge>
    <edge id=":R2C2_C_3" function="internal">
        <lane id=":R2C2_C_3_0" index="0" speed="7.33" length="11.73" shape="610.40,1104.80 606.55,1105.15 603.80,1106.20 602.15,1107.95 601.60,1110.40"/>
    </edge>
    <edge id=":R2C2_C_4" function="internal">
        <lane id=":R2C2_C_4_0" index="0" speed="13.89" length="21.09" shape="610.40,1104.80 603.63,1104.30 598.12,1103.20 593.55,1102.10 589.60,1101.60"/>
    </edge>
    <edge id=":R2C2_C_5" function="internal">
        <lane id=":R2C2_C_5_0" index="0" speed="9.26" length="7.32" shape="610.40,1101.60 605.15,1100.85 603.42,1099.81"/>
    </edge>
    <edge id=":R2C2_C_13" function="internal">
        <lane id=":R2C2_C_13_0" index="0" speed="9.26" length="12.03" shape="603.42,1099.81 601.40,1098.60 599.15,1094.85 598.40,1089.60"/>
    </edge>
    <edge id=":R2C2_C_6" function="internal">
        <lane id=":R2C2_C_6_0" index="0" speed="7.33" length="11.73" shape="604.80,1089.60 605.15,1093.45 606.20,1096.20 607.95,1097.85 610.40,1098.40"/>
    </edge>
    <edge id=":R2C2_C_7" function="internal">
        <lane id=":R2C2_C_7_0" index="0" speed="13.89" length="21.09" shape="604.80,1089.60 604.30,1096.37 603.20,1101.88 602.10,1106.45 601.60,1110.40"/>
    </edge>
    <edge id=":R2C2_C_8" function="internal">
        <lane id=":R2C2_C_8_0" index="0" speed="9.26" length="7.32" shape="601.60,1089.60 600.85,1094.85 599.81,1096.58"/>
    </edge>
    <edge id=":R2C2_C_14" function="internal">
        <lane id=":R2C2_C_14_0" index="0" speed="9.26" length="12.03" shape="599.81,1096.58 598.60,1098.60 594.85,1100.85 589.60,1101.60"/>
    </edge>
    <edge id=":R2C2_C_9" function="internal">
        <lane id=":R2C2_C_9_0" index="0" speed="7.33" length="11.73" shape="589.60,1095.20 593.45,1094.85 596.20,1093.80 597.85,1092.05 598.40,1089.60"/>
    </edge>
    <edge id=":R2C2_C_10" function="internal">
        <lane id=":R2C2_C_10_0" index="0" speed="13.89" length="21.09" shape="589.60,1095.20 596.37,1095.70 601.88,1096.80 606.45,1097.90 610.40,1098.40"/>
    </edge>
    <edge id=":R2C2_C_11" function="internal">
        <lane id=":R2C2_C_11_0" index="0" speed="9.26" length="7.32" shape="589.60,1098.40 594.85,1099.15 596.58,1100.19"/>
    </edge>
    <edge id=":R2C2_C_15" function="internal">
        <lane id=":R2C2_C_15_0" index="0" speed="9.26" length="12.03" shape="596.58,1100.19 598.60,1101.40 600.85,1105.15 601.60,1110.40"/>
    </edge>
    <edge id=":R2C3_C_0" function="internal">
        <lane id=":R2C3_C_0_0" index="0" speed="6.51" length="9.03" shape="1095.20,1110.40 1094.85,1107.95 1093.80,1106.20 1092.05,1105.15 1089.60,1104.80"/>
    </edge>
    <edge id=":R2C3_C_1" function="internal">
        <lane id=":R2C3_C_1_0" index="0" speed="13.89" length="20.80" shape="1095.20,1110.40 1095.20,1089.60"/>
        <lane id=":R2C3_C_1_1" index="1" speed="13.89" length="20.80" shape="1098.40,1110.40 1098.40,1089.60"/>
    </edge>
    <edge id=":R2C3_C_3" function="internal">
        <lane id=":R2C3_C_3_0" index="0" speed="9.26" length="5.01" shape="1098.40,1110.40 1099.11,1105.44"/>
    </edge>
    <edge id=":R2C3_C_16" function="internal">
        <lane id=":R2C3_C_16_0" index="0" speed="9.26" length="14.34" shape="1099.11,1105.44 1099.15,1105.15 1101.40,1101.40 1105.15,1099.15 1110.40,1098.40"/>
    </edge>
    <edge id=":R2C3_C_4" function="internal">
        <lane id=":R2C3_C_4_0" index="0" speed="6.51" length="9.03" shape="1110.40,1104.80 1107.95,1105.15 1106.20,1106.20 1105.15,1107.95 1104.80,1110.40"/>
    </edge>
    <edge id=":R2C3_C_5" function="internal">
        <lane id=":R2C3_C_5_0" index="0" speed="13.89" length="20.80" shape="1110.40,1104.80 1089.60,1104.80"/>
        <lane id=":R2C3_C_5_1" index="1" speed="13.89" length="20.80" shape="1110.40,1101.60 1089.60,1101.60"/>
    </edge>
    <edge id=":R2C3_C_7" function="internal">
        <lane id=":R2C3_C_7_0" index="0" speed="9.26" length="5.01" shape="1110.40,1101.60 1105.44,1100.89"/>
    </edge>
    <edge id=":R2C3_C_17" function="internal">
        <lane id=":R2C3_C_17_0" index="0" speed="9.26" length="14.34" shape="1105.44,1100.89 1105.15,1100.85 1101.40,1098.60 1099.15,1094.85 1098.40,1089.60"/>
    </edge>
    <edge id=":R2C3_C_8" function="internal">
        <lane id=":R2C3_C_8_0" index="0" speed="6.51" length="9.03" shape="1104.80,1089.60 1105.15,1092.05 1106.20,1093.80 1107.95,1094.85 1110.40,1095.20"/>
    </edge>
    <edge id=":R2C3_C_9" function="internal">
        <lane id=":R2C3_C_9_0" index="0" speed="13.89" length="20.80" shape="1104.80,1089.60 1104.80,1110.40"/>
        <lane id=":R2C3_C_9_1" index="1" speed="13.89" length="20.80" shape="1101.60,1089.60 1101.60,1110.40"/>
    </edge>
    <edge id=":R2C3_C_11" function="internal">
        <lane id=":R2C3_C_11_0" index="0" speed="9.26" length="5.01" shape="1101.60,1089.60 1100.89,1094.56"/>
    </edge>
    <edge id=":R2C3_C_18" function="internal">
        <lane id=":R2C3_C_18_0" index="0" speed="9.26" length="14.34" shape="1100.89,1094.56 1100.85,1094.85 1098.60,1098.60 1094.85,1100.85 1089.60,1101.60"/>
    </edge>
    <edge id=":R2C3_C_12" function="internal">
        <lane id=":R2C3_C_12_0" index="0" speed="6.51" length="9.03" shape="1089.60,1095.20 1092.05,1094.85 1093.80,1093.80 1094.85,1092.05 1095.20,1089.60"/>
    </edge>
    <edge id=":R2C3_C_13" function="internal">
        <lane id=":R2C3_C_13_0" index="0" speed="13.89" length="20.80" shape="1089.60,1095.20 1110.40,1095.20"/>
        <lane id=":R2C3_C_13_1" index="1" speed="13.89" length="20.80" shape="1089.60,1098.40 1110.40,1098.40"/>
    </edge>
    <edge id=":R2C3_C_15" function="internal">
        <lane id=":R2C3_C_15_0" index="0" speed="9.26" length="5.01" shape="1089.60,1098.40 1094.56,1099.11"/>
    </edge>
    <edge id=":R2C3_C_19" function="internal">
        <lane id=":R2C3_C_19_0" index="0" speed="9.26" length="14.34" shape="1094.56,1099.11 1094.85,1099.15 1098.60,1101.40 1100.85,1105.15 1101.60,1110.40"/>
    </edge>
    <edge id=":R2C4_C_0" function="internal">
        <lane id=":R2C4_C_0_0" index="0" speed="7.33" length="11.73" shape="1592.00,1113.60 1591.65,1109.75 1590.60,1107.00 1588.85,1105.35 1586.40,1104.80"/>
    </edge>
    <edge id=":R2C4_C_1" function="internal">
        <lane id=":R2C4_C_1_0" index="0" speed="13.89" length="27.43" shape="1592.00,1113.60 1592.50,1104.98 1593.60,1098.61 1594.70,1092.94 1595.20,1086.40"/>
        <lane id=":R2C4_C_1_1" index="1" speed="13.89" length="27.43" shape="1595.20,1113.60 1595.70,1104.98 1596.80,1098.61 1597.90,1092.94 1598.40,1086.40"/>
    </edge>
    <edge id=":R2C4_C_3" function="internal">
        <lane id=":R2C4_C_3_0" index="0" speed="10.36" length="7.16" shape="1598.40,1113.60 1599.35,1106.95 1599.58,1106.57"/>
    </edge>
    <edge id=":R2C4_C_16" function="internal">
        <lane id=":R2C4_C_16_0" index="0" speed="10.36" length="17.36" shape="1599.58,1106.57 1602.20,1102.20 1606.95,1099.35 1613.60,1098.40"/>
    </edge>
    <edge id=":R2C4_C_4" function="internal">
        <lane id=":R2C4_C_4_0" index="0" speed="7.33" length="11.73" shape="1613.60,1108.00 1609.75,1108.35 1607.00,1109.40 1605.35,1111.15 1604.80,1113.60"/>
    </edge>
    <edge id=":R2C4_C_5" function="internal">
        <lane id=":R2C4_C_5_0" index="0" speed="13.89" length="27.43" shape="1613.60,1108.00 1604.98,1107.50 1598.61,1106.40 1592.94,1105.30 1586.40,1104.80"/>
        <lane id=":R2C4_C_5_1" index="1" speed="13.89" length="27.43" shape="1613.60,1104.80 1604.98,1104.30 1598.61,1103.20 1592.94,1102.10 1586.40,1101.60"/>
    </edge>
    <edge id=":R2C4_C_7" function="internal">
        <lane id=":R2C4_C_7_0" index="0" speed="10.36" length="7.16" shape="1613.60,1101.60 1606.95,1100.65 1606.57,1100.42"/>
    </edge>
    <edge id=":R2C4_C_17" function="internal">
        <lane id=":R2C4_C_17_0" index="0" speed="10.36" length="17.36" shape="1606.57,1100.42 1602.20,1097.80 1599.35,1093.05 1598.40,1086.40"/>
    </edge>
    <edge id=":R2C4_C_8" function="internal">
        <lane id=":R2C4_C_8_0" index="0" speed="7.33" length="11.73" shape="1608.00,1086.40 1608.35,1090.25 1609.40,1093.00 1611.15,1094.65 1613.60,1095.20"/>
    </edge>
    <edge id=":R2C4_C_9" function="internal">
        <lane id=":R2C4_C_9_0" index="0" speed="13.89" length="27.43" shape="1608.00,1086.40 1607.50,1095.02 1606.40,1101.39 1605.30,1107.06 1604.80,1113.60"/>
        <lane id=":R2C4_C_9_1" index="1" speed="13.89" length="27.43" shape="1604.80,1086.40 1604.30,1095.02 1603.20,1101.39 1602.10,1107.06 1601.60,1113.60"/>
    </edge>
    <edge id=":R2C4_C_11" function="internal">
        <lane id=":R2C4_C_11_0" index="0" speed="10.36" length="7.16" shape="1601.60,1086.40 1600.65,1093.05 1600.42,1093.43"/>
    </edge>
    <edge id=":R2C4_C_18" function="internal">
        <lane id=":R2C4_C_18_0" index="0" speed="10.36" length="17.36" shape="1600.42,1093.43 1597.80,1097.80 1593.05,1100.65 1586.40,1101.60"/>
    </edge>
    <edge id=":R2C4_C_12" function="internal">
        <lane id=":R2C4_C_12_0" index="0" speed="7.33" length="11.73" shape="1586.40,1092.00 1590.25,1091.65 1593.00,1090.60 1594.65,1088.85 1595.20,1086.40"/>
    </edge>
    <edge id=":R2C4_C_13" function="internal">
        <lane id=":R2C4_C_13_0" index="0" speed="13.89" length="27.43" shape="1586.40,1092.00 1595.02,1092.50 1601.39,1093.60 1607.06,1094.70 1613.60,1095.20"/>
        <lane id=":R2C4_C_13_1" index="1" speed="13.89" length="27.43" shape="1586.40,1095.20 1595.02,1095.70 1601.39,1096.80 1607.06,1097.90 1613.60,1098.40"/>
    </edge>
    <edge id=":R2C4_C_15" function="internal">
        <lane id=":R2C4_C_15_0" index="0" speed="10.36" length="7.16" shape="1586.40,1098.40 1593.05,1099.35 1593.43,1099.58"/>
    </edge>
    <edge id=":R2C4_C_19" function="internal">
        <lane id=":R2C4_C_19_0" index="0" speed="10.36" length="17.36" shape="1593.43,1099.58 1597.80,1102.20 1600.65,1106.95 1601.60,1113.60"/>
    </edge>
    <edge id=":R2C5_C_0" function="internal">
        <lane id=":R2C5_C_0_0" index="0" speed="6.51" length="9.03" shape="2092.00,1113.60 2091.65,1111.15 2090.60,1109.40 2088.85,1108.35 2086.40,1108.00"/>
    </edge>
    <edge id=":R2C5_C_1" function="internal">
        <lane id=":R2C5_C_1_0" index="0" speed="13.89" length="27.43" shape="2092.00,1113.60 2092.50,1104.98 2093.60,1098.61 2094.70,1092.94 2095.20,1086.40"/>
        <lane id=":R2C5_C_1_1" index="1" speed="13.89" length="27.43" shape="2095.20,1113.60 2095.70,1104.98 2096.80,1098.61 2097.90,1092.94 2098.40,1086.40"/>
    </edge>
    <edge id=":R2C5_C_3" function="internal">
        <lane id=":R2C5_C_3_0" index="0" speed="10.36" length="5.01" shape="2098.40,1113.60 2099.11,1108.64"/>
    </edge>
    <edge id=":R2C5_C_18" function="internal">
        <lane id=":R2C5_C_18_0" index="0" speed="10.36" length="19.50" shape="2099.11,1108.64 2099.35,1106.95 2102.20,1102.20 2106.95,1099.35 2113.60,1098.40"/>
    </edge>
    <edge id=":R2C5_C_4" function="internal">
        <lane id=":R2C5_C_4_0" index="0" speed="6.51" length="9.03" shape="2113.60,1108.00 2111.15,1108.35 2109.40,1109.40 2108.35,1111.15 2108.00,1113.60"/>
    </edge>
    <edge id=":R2C5_C_5" function="internal">
        <lane id=":R2C5_C_5_0" index="0" speed="13.89" length="27.20" shape="2113.60,1108.00 2086.40,1108.00"/>
        <lane id=":R2C5_C_5_1" index="1" speed="13.89" length="27.20" shape="2113.60,1104.80 2086.40,1104.80"/>
        <lane id=":R2C5_C_5_2" index="2" speed="13.89" length="27.20" shape="2113.60,1101.60 2086.40,1101.60"/>
    </edge>
    <edge id=":R2C5_C_8" function="internal">
        <lane id=":R2C5_C_8_0" index="0" speed="10.36" length="5.01" shape="2113.60,1101.60 2108.64,1100.89"/>
    </edge>
    <edge id=":R2C5_C_19" function="internal">
        <lane id=":R2C5_C_19_0" index="0" speed="10.36" length="19.50" shape="2108.64,1100.89 2106.95,1100.65 2102.20,1097.80 2099.35,1093.05 2098.40,1086.40"/>
    </edge>
    <edge id=":R2C5_C_9" function="internal">
        <lane id=":R2C5_C_9_0" index="0" speed="6.51" length="9.03" shape="2108.00,1086.40 2108.35,1088.85 2109.40,1090.60 2111.15,1091.65 2113.60,1092.00"/>
    </edge>
    <edge id=":R2C5_C_10" function="internal">
        <lane id=":R2C5_C_10_0" index="0" speed="13.89" length="27.20" shape="2108.00,1086.40 2108.00,1113.60"/>
        <lane id=":R2C5_C_10_1" index="1" speed="13.89" length="27.20" shape="2104.80,1086.40 2104.80,1113.60"/>
        <lane id=":R2C5_C_10_2" index="2" speed="13.89" length="27.20" shape="2101.60,1086.40 2101.60,1113.60"/>
    </edge>
    <edge id=":R2C5_C_13" function="internal">
        <lane id=":R2C5_C_13_0" index="0" speed="10.36" length="7.16" shape="2101.60,1086.40 2100.65,1093.05 2100.42,1093.43"/>
    </edge>
    <edge id=":R2C5_C_20" function="internal">
        <lane id=":R2C5_C_20_0" index="0" speed="10.36" length="17.36" shape="2100.42,1093.43 2097.80,1097.80 2093.05,1100.65 2086.40,1101.60"/>
    </edge>
    <edge id=":R2C5_C_14" function="internal">
        <lane id=":R2C5_C_14_0" index="0" speed="8.00" length="14.19" shape="2086.40,1095.20 2090.25,1094.65 2093.00,1093.00 2094.65,1090.25 2095.20,1086.40"/>
    </edge>
    <edge id=":R2C5_C_15" function="internal">
        <lane id=":R2C5_C_15_0" index="0" speed="13.89" length="27.20" shape="2086.40,1095.20 2113.60,1095.20"/>
        <lane id=":R2C5_C_15_1" index="1" speed="13.89" length="27.20" shape="2086.40,1098.40 2113.60,1098.40"/>
    </edge>
    <edge id=":R2C5_C_17" function="internal">
        <lane id=":R2C5_C_17_0" index="0" speed="10.36" length="5.01" shape="2086.40,1098.40 2091.36,1099.11"/>
    </edge>
    <edge id=":R2C5_C_21" function="internal">
        <lane id=":R2C5_C_21_0" index="0" speed="10.36" length="19.50" shape="2091.36,1099.11 2093.05,1099.35 2097.80,1102.20 2100.65,1106.95 2101.60,1113.60"/>
    </edge>
    <edge id=":R3C1_C_0" function="internal">
        <lane id=":R3C1_C_0_0" index="0" speed="6.51" length="9.03" shape="98.40,610.40 98.05,607.95 97.00,606.20 95.25,605.15 92.80,604.80"/>
    </edge>
    <edge id=":R3C1_C_1" function="internal">
        <lane id=":R3C1_C_1_0" index="0" speed="8.33" length="20.80" shape="98.40,610.40 98.40,589.60"/>
    </edge>
    <edge id=":R3C1_C_2" function="internal">
        <lane id=":R3C1_C_2_0" index="0" speed="8.67" length="5.56" shape="98.40,610.40 98.95,605.15 99.06,604.89"/>
    </edge>
    <edge id=":R3C1_C_14" function="internal">
        <lane id=":R3C1_C_14_0" index="0" speed="8.67" length="11.29" shape="99.06,604.89 100.60,601.40 103.35,599.15 107.20,598.40"/>
    </edge>
    <edge id=":R3C1_C_3" function="internal">
        <lane id=":R3C1_C_3_0" index="0" speed="6.51" length="9.03" shape="107.20,604.80 104.75,605.15 103.00,606.20 101.95,607.95 101.60,610.40"/>
    </edge>
    <edge id=":R3C1_C_4" function="internal">
        <lane id=":R3C1_C_4_0" index="0" speed="13.89" length="14.40" shape="107.20,604.80 92.80,604.80"/>
        <lane id=":R3C1_C_4_1" index="1" speed="13.89" length="14.40" shape="107.20,601.60 92.80,601.60"/>
    </edge>
    <edge id=":R3C1_C_6" function="internal">
        <lane id=":R3C1_C_6_0" index="0" speed="8.67" length="3.71" shape="107.20,601.60 103.56,600.89"/>
    </edge>
    <edge id=":R3C1_C_15" function="internal">