<?xml version="1.0" encoding="UTF-8"?>

<!-- generated on 2026-01-23T17:37:02.942649+01:00 by Eclipse SUMO duarouter 1.25.0
<duarouterConfiguration xmlns:xsi="http://www.w3.org/2001/XMLSchema-instance" xsi:noNamespaceSchemaLocation="http://sumo.dlr.de/xsd/duarouterConfiguration.xsd">

    <input>
        <net-file value="data/mega_catalogue_v2.net.xml"/>
        <route-files value="random_traffic.rou.xml"/>
    </input>

    <output>
        <output-file value="random_traffic.rou.xml.tmp"/>
        <alternatives-output value="NUL"/>
        <write-trips value="true"/>
    </output>

    <processing>
        <routing-threads value="6"/>
        <routing-algorithm value="CH"/>
    </processing>

    <time>
        <begin value="0"/>
        <end value="600.0"/>
    </time>

    <report>
        <no-warnings value="true"/>
        <ignore-errors value="true"/>
        <no-step-log value="true"/>
    </report>

</duarouterConfiguration>
-->

<routes xmlns:xsi="http://www.w3.org/2001/XMLSchema-instance" xsi:noNamespaceSchemaLocation="http://sumo.dlr.de/xsd/routes_file.xsd">
    <trip id="56" depart="0.10" from="e43_w" to="e43_ce"/>
    <trip id="78" depart="0.14" from="e21_n" to="e21_ce"/>
    <trip id="88" depart="0.16" from="e25_cs" to="e25_cs.35"/>
    <trip id="106" depart="0.19" from="e45_e" to="e45_cw"/>
    <trip id="118" depart="0.21" from="e33_main_e" to="e33_main_cw"/>
    <trip id="228" depart="0.40" from="e22_e" to="e22_cw"/>
    <trip id="242" depart="0.43" from="e21_n" to="e21_ce"/>
    <trip id="279" depart="0.49" from="e42_s2cw" to="e42_ce2e"/>
    <trip id="321" depart="0.57" from="e25_w" to="e25_ce"/>
    <trip id="334" depart="0.59" from="e33_side_n" to="e33_main_cw"/>
    <trip id="358" depart="0.63" from="e45_e" to="e45_cw"/>
    <trip id="365" depart="0.64" from="e23_s" to="e23_ce"/>
    <trip id="396" depart="0.70" from="e22_n" to="e22_cs"/>
    <trip id="400" depart="0.71" from="e32_main_w" to="e32_main_ce"/>
    <trip id="405" depart="0.71" from="e35_side_s" to="e35_main_ce"/>
    <trip id="435" depart="0.77" from="e21_w" to="e21_cs"/>
    <trip id="452" depart="0.80" from="e33_side_s" to="e33_main_cw"/>
    <trip id="542" depart="0.96" from="e32_side_s" to="e32_main_cw"/>
    <trip id="587" depart="1.04" from="e32_side_s" to="e32_side_cn"/>
    <trip id="596" depart="1.05" from="e23_n" to="e23_ce"/>
    <trip id="611" depart="1.08" from="e22_w" to="e22_ce"/>
    <trip id="635" depart="1.12" from="e43_w" to="e43_ce"/>
    <trip id="646" depart="1.14" from="e23_w" to="e23_cs"/>
    <trip id="647" depart="1.14" from="e15_nw" to="e15_cs"/>
    <trip id="665" depart="1.17" from="e45_e" to="e45_cs"/>
    <trip id="702" depart="1.24" from="e31_side_s" to="e31_main_cw"/>
    <trip id="739" depart="1.30" from="e45_s" to="e45_ce"/>
    <trip id="802" depart="1.42" from="e12_w" to="e12_ce"/>
    <trip id="803" depart="1.42" from="e25_n" to="e25_cw"/>
    <trip id="817" depart="1.44" from="e31_side_n" to="e31_main_ce"/>
    <trip id="839" depart="1.48" from="e25_w" to="e25_cn"/>
    <trip id="852" depart="1.50" from="e41_s" to="e41_cn"/>
    <trip id="855" depart="1.51" from="e33_side_n" to="e33_main_cw"/>
    <trip id="869" depart="1.53" from="e34_main_e" to="e34_side_cs"/>
    <trip id="873" depart="1.54" from="e22_s" to="e22_cn"/>
    <trip id="875" depart="1.54" from="e23_e" to="e23_cn"/>
    <trip id="881" depart="1.56" from="e22_s" to="e22_cn"/>
    <trip id="934" depart="1.65" from="e14_e" to="e14_cs"/>
    <trip id="963" depart="1.70" from="e43_e" to="e43_cw"/>
    <trip id="992" depart="1.75" from="e43_n" to="e43_cw"/>
    <trip id="1022" depart="1.80" from="e31_side_n" to="e31_main_ce"/>
    <trip id="1070" depart="1.89" from="e43_e" to="e43_cn"/>
    <trip id="1092" depart="1.93" from="e34_side_n" to="e34_main_ce"/>
    <trip id="1120" depart="1.98" from="e23_n" to="e23_ce"/>
    <trip id="1121" depart="1.98" from="e42_e2ce" to="e42_cw2w"/>
    <trip id="1153" depart="2.04" from="e32_side_s" to="e32_side_cn"/>
    <trip id="1177" depart="2.08" from="e41_e" to="e41_cw"/>
    <trip id="1183" depart="2.09" from="e33_main_e" to="e33_main_cw"/>
    <trip id="1188" depart="2.10" from="e13_e" to="e13_cw"/>
    <trip id="1201" depart="2.12" from="e31_main_w" to="e31_main_ce"/>
    <trip id="1291" depart="2.28" from="e31_side_n" to="e31_main_cw"/>
    <trip id="1297" depart="2.29" from="e45_s" to="e45_cw"/>
    <trip id="1315" depart="2.32" from="e35_main_e" to="e35_side_cn"/>
    <trip id="1371" depart="2.42" from="e13_s" to="e13_cw"/>
    <trip id="1375" depart="2.43" from="e22_e" to="e22_cw"/>
    <trip id="1410" depart="2.49" from="e15_ne" to="e15_cs"/>
    <trip id="1419" depart="2.50" from="e41_w" to="e41_cs"/>
    <trip id="1439" depart="2.54" from="e32_side_n" to="e32_main_cw"/>
    <trip id="1451" depart="2.56" from="e42_s2cw" to="e42_cw2w"/>
    <trip id="1484" depart="2.62" from="e22_s" to="e22_cw"/>
    <trip id="1489" depart="2.63" from="e33_main_e" to="e33_main_cw"/>
    <trip id="1495" depart="2.64" from="e35_main_w" to="e35_side_cn"/>
    <trip id="1510" depart="2.67" from="e21_n" to="e21_cw"/>
    <trip id="1525" depart="2.69" from="e45_s" to="e45_cn"/>
    <trip id="1538" depart="2.71" from="e44_w" to="e44_ce"/>
    <trip id="1557" depart="2.75" from="e15_nw" to="e15_cs"/>
    <trip id="1578" depart="2.79" from="e34_main_e" to="e34_side_cn"/>
    <trip id="1602" depart="2.83" from="e34_main_w" to="e34_side_cn"/>
    <trip id="1605" depart="2.83" from="e24_w" to="e24_ce"/>
    <trip id="1674" depart="2.95" from="e13_w" to="e13_ce"/>
    <trip id="1675" depart="2.96" from="e15_s" to="e15_cnw"/>
    <trip id="1686" depart="2.98" from="e21_w" to="e21_cn"/>
    <trip id="1713" depart="3.02" from="e22_e" to="e22_cw"/>
    <trip id="1763" depart="3.11" from="e31_main_e" to="e31_main_cw"/>
    <trip id="1828" depart="3.23" from="e23_n" to="e23_cs"/>
    <trip id="1834" depart="3.24" from="e33_main_w" to="e33_side_cn"/>
    <trip id="1884" depart="3.33" from="e42_w2cw" to="e42_cw2s"/>
    <trip id="1912" depart="3.37" from="e32_main_w" to="e32_main_ce"/>
    <trip id="1930" depart="3.41" from="e25_w" to="e25_cn"/>
    <trip id="1943" depart="3.43" from="e14_s" to="e14_cw"/>
    <trip id="1985" depart="3.50" from="e13_s" to="e13_cw"/>
    <trip id="1992" depart="3.52" from="e34_main_e" to="e34_side_cn"/>
    <trip id="1993" depart="3.52" from="e23_e" to="e23_cs"/>
    <trip id="2042" depart="3.60" from="e41_n" to="e41_ce"/>
    <trip id="2063" depart="3.64" from="e34_side_n" to="e34_main_cw"/>
    <trip id="2068" depart="3.65" from="e43_s" to="e43_ce"/>
    <trip id="2141" depart="3.78" from="e33_main_e" to="e33_side_cn"/>
    <trip id="2147" depart="3.79" from="e22_e" to="e22_cs"/>
    <trip id="2150" depart="3.79" from="e25_w" to="E0"/>
    <trip id="2152" depart="3.80" from="e25_w" to="E0"/>
    <trip id="2155" depart="3.80" from="e24_e" to="e24_cs"/>
    <trip id="2158" depart="3.81" from="e24_n" to="e24_ce"/>
    <trip id="2166" depart="3.82" from="e33_side_s" to="e33_main_cw"/>
    <trip id="2181" depart="3.85" from="e42_s2cw" to="e42_ce2e"/>
    <trip id="2209" depart="3.90" from="e41_e" to="e41_cw"/>
    <trip id="2215" depart="3.91" from="e15_nw" to="e15_cne"/>
    <trip id="2261" depart="3.99" from="e23_e" to="e23_cw"/>
    <trip id="2357" depart="4.16" from="e33_main_w" to="e33_side_cn"/>
    <trip id="2365" depart="4.17" from="e45_w" to="e45_cs"/>
    <trip id="2372" depart="4.19" from="e24_w" to="e24_cs"/>
    <trip id="2457" depart="4.34" from="e31_side_s" to="e31_side_cn"/>
    <trip id="2499" depart="4.41" from="e35_side_s" to="e35_main_ce"/>
    <trip id="2505" depart="4.42" from="e41_s" to="e41_cn"/>
    <trip id="2545" depart="4.49" from="e25_w" to="e25_cn"/>
    <trip id="2596" depart="4.58" from="e24_n" to="e24_ce"/>
    <trip id="2671" depart="4.71" from="e35_side_s" to="e35_side_cn"/>
    <trip id="2756" depart="4.86" from="e41_w" to="e41_ce"/>
    <trip id="2788" depart="4.92" from="e41_w" to="e41_ce"/>
    <trip id="2811" depart="4.96" from="e33_side_s" to="e33_main_cw"/>
    <trip id="2842" depart="5.02" from="e41_w" to="e41_cs"/>
    <trip id="2859" depart="5.05" from="e31_main_e" to="e31_side_cn"/>
    <trip id="2891" depart="5.10" from="e34_side_s" to="e34_main_cw"/>
    <trip id="2897" depart="5.11" from="e23_s" to="e23_cw"/>
    <trip id="2940" depart="5.19" from="e35_main_e" to="e35_side_cs"/>
    <trip id="2993" depart="5.28" from="e41_n" to="e41_ce"/>
    <trip id="3049" depart="5.38" from="e12_e" to="e12_cs"/>
    <trip id="3068" depart="5.42" from="e34_side_n" to="e34_main_ce"/>
    <trip id="3079" depart="5.43" from="e23_w" to="e23_cs"/>
    <trip id="3089" depart="5.45" from="e24_e" to="e24_cn"/>
    <trip id="3138" depart="5.54" from="e43_e" to="e43_cs"/>
    <trip id="3181" depart="5.61" from="e42_e2ce" to="e42_ce2n"/>
    <trip id="3206" depart="5.66" from="e24_s" to="e24_cw"/>
    <trip id="3225" depart="5.69" from="e34_side_s" to="e34_side_cn"/>
    <trip id="3226" depart="5.69" from="e35_main_w" to="e35_main_ce"/>
    <trip id="3247" depart="5.73" from="e22_e" to="e22_cw"/>
    <trip id="3282" depart="5.79" from="e24_e" to="e24_cn"/>
    <trip id="3321" depart="5.86" from="e15_nw" to="e15_cne"/>
    <trip id="3351" depart="5.91" from="e33_main_e" to="e33_main_cw"/>
    <trip id="3382" depart="5.97" from="e21_n" to="e21_cw"/>
    <trip id="3383" depart="5.97" from="e23_n" to="e23_cs"/>
    <trip id="3390" depart="5.98" from="e13_w" to="e13_ce"/>
    <trip id="3409" depart="6.02" from="e24_w" to="e24_cs"/>
    <trip id="3460" depart="6.11" from="e25_w" to="e25_cn"/>
    <trip id="3481" depart="6.14" from="e43_s" to="e43_cn"/>
    <trip id="3490" depart="6.16" from="e25_s" to="e25_cn"/>
    <trip id="3570" depart="6.30" from="e42_e2ce" to="e42_ce2n"/>
    <trip id="3613" depart="6.38" from="e33_main_e" to="e33_side_cn"/>
    <trip id="3652" depart="6.45" from="e42_n2ce" to="e42_cw2w"/>
    <trip id="3656" depart="6.45" from="e34_main_w" to="e34_side_cs"/>
    <trip id="3703" depart="6.54" from="e23_e" to="e23_cw"/>
    <trip id="3726" depart="6.58" from="e15_s" to="e15_cnw"/>
    <trip id="3740" depart="6.60" from="e41_s" to="e41_ce"/>
    <trip id="3756" depart="6.63" from="e33_side_s" to="e33_main_ce"/>
    <trip id="3798" depart="6.70" from="e35_main_e" to="e35_main_cw"/>
    <trip id="3828" depart="6.76" from="e41_n" to="e41_ce"/>
    <trip id="3853" depart="6.80" from="e34_side_s" to="e34_side_cn"/>
    <trip id="3903" depart="6.89" from="e25_s" to="e25_cn"/>
    <trip id="3918" depart="6.92" from="e31_side_n" to="e31_main_ce"/>
    <trip id="3971" depart="7.01" from="e23_w" to="e23_ce"/>
    <trip id="3973" depart="7.01" from="e35_main_e" to="e35_main_cw"/>
    <trip id="4011" depart="7.08" from="e33_main_e" to="e33_side_cs"/>
    <trip id="4142" depart="7.31" from="e31_main_e" to="e31_side_cs"/>
    <trip id="4176" depart="7.37" from="e35_main_w" to="e35_main_ce"/>
    <trip id="4213" depart="7.44" from="e15_s" to="e15_cnw"/>
    <trip id="4224" depart="7.46" from="e13_w" to="e13_cs"/>
    <trip id="4249" depart="7.50" from="e22_w" to="e22_ce"/>
    <trip id="4324" depart="7.63" from="e15_nw" to="e15_cne"/>
    <trip id="4330" depart="7.64" from="e12_w" to="e12_cs"/>
    <trip id="4358" depart="7.69" from="e13_w" to="e13_ce"/>
    <trip id="4361" depart="7.70" from="e44_n" to="e44_ce"/>
    <trip id="4388" depart="7.75" from="e35_side_s" to="e35_main_ce"/>
    <trip id="4406" depart="7.78" from="e12_w" to="e12_cs"/>
    <trip id="4444" depart="7.84" from="e35_side_s" to="e35_main_cw"/>
    <trip id="4460" depart="7.87" from="e23_n" to="e23_cs"/>
    <trip id="4486" depart="7.92" from="e33_side_n" to="e33_side_cs"/>
    <trip id="4527" depart="7.99" from="e35_side_s" to="e35_side_cn"/>
    <trip id="4577" depart="8.08" from="e45_n" to="e45_cw"/>
    <trip id="4602" depart="8.12" from="e33_side_n" to="e33_side_cs"/>
    <trip id="4617" depart="8.15" from="e45_s" to="e45_cw"/>
    <trip id="4640" depart="8.19" from="e33_side_n" to="e33_main_ce"/>
    <trip id="4666" depart="8.24" from="e14_e" to="e14_cw"/>
    <trip id="4687" depart="8.27" from="e15_ne" to="e15_cnw"/>
    <trip id="4704" depart="8.30" from="e21_n" to="e21_cw"/>
    <trip id="4736" depart="8.36" from="e31_side_s" to="e31_main_ce"/>
    <trip id="4798" depart="8.47" from="e22_w" to="e22_cn"/>
    <trip id="4930" depart="8.70" from="e44_w" to="e44_ce"/>
    <trip id="5029" depart="8.88" from="e25_n" to="e25_cs.35"/>
    <trip id="5050" depart="8.91" from="e23_e" to="e23_cw"/>
    <trip id="5069" depart="8.95" from="e32_side_n" to="e32_main_ce"/>
    <trip id="5089" depart="8.98" from="e22_s" to="e22_cw"/>
    <trip id="5093" depart="8.99" from="e43_s" to="e43_ce"/>
    <trip id="5100" depart="9.00" from="e43_e" to="e43_cw"/>
    <trip id="5104" depart="9.01" from="e33_main_e" to="e33_main_cw"/>
    <trip id="5144" depart="9.08" from="e25_n" to="e25_ce"/>
    <trip id="5196" depart="9.17" from="e15_ne" to="e15_cs"/>
    <trip id="5253" depart="9.27" from="e41_e" to="e41_cs"/>
    <trip id="5304" depart="9.36" from="e14_s" to="e14_cw"/>
    <trip id="5422" depart="9.57" from="e41_n" to="e41_cw"/>
    <trip id="5435" depart="9.59" from="e13_s" to="e13_cw"/>
    <trip id="5502" depart="9.71" from="e22_e" to="e22_cs"/>
    <trip id="5546" depart="9.79" from="e23_e" to="e23_cw"/>
    <trip id="5559" depart="9.81" from="e33_side_s" to="e33_main_cw"/>
    <trip id="5568" depart="9.83" from="e42_w2cw" to="e42_cw2s"/>
    <trip id="5571" depart="9.83" from="e44_w" to="e44_ce"/>
    <trip id="5581" depart="9.85" from="e11_e" to="e11_cs"/>
    <trip id="5602" depart="9.89" from="e22_e" to="e22_cn"/>
    <trip id="5622" depart="9.92" from="e23_e" to="e23_cw"/>
    <trip id="5629" depart="9.94" from="e41_n" to="e41_cs"/>
    <trip id="5643" depart="9.96" from="e34_side_s" to="e34_main_ce"/>
    <trip id="5657" depart="9.99" from="e32_side_n" to="e32_side_cs"/>
    <trip id="5677" depart="10.02" from="e41_n" to="e41_ce"/>
    <trip id="5682" depart="10.03" from="e14_w" to="e14_cs"/>
    <trip id="5683" depart="10.03" from="e41_n" to="e41_cs"/>
    <trip id="5687" depart="10.04" from="e41_s" to="e41_cn"/>
    <trip id="5691" depart="10.05" from="e23_n" to="e23_cs"/>
    <trip id="5708" depart="10.08" from="e34_main_w" to="e34_side_cn"/>
    <trip id="5716" depart="10.09" from="e14_w" to="e14_cs"/>
    <trip id="5727" depart="10.11" from="e25_w" to="e25_cs.35"/>
    <trip id="5737" depart="10.13" from="e41_w" to="e41_cs"/>
    <trip id="5756" depart="10.16" from="e21_w" to="e21_ce"/>
    <trip id="5822" depart="10.28" from="e33_main_w" to="e33_side_cs"/>
    <trip id="5842" depart="10.31" from="e15_s" to="e15_cne"/>
    <trip id="5890" depart="10.40" from="e41_e" to="e41_cw"/>
    <trip id="5912" depart="10.44" from="e41_w" to="e41_ce"/>
    <trip id="5956" depart="10.51" from="e42_e2ce" to="e42_cw2s"/>
    <trip id="6033" depart="10.65" from="e15_nw" to="e15_cne"/>
    <trip id="6069" depart="10.71" from="e44_n" to="e44_cs"/>
    <trip id="6073" depart="10.72" from="e23_n" to="e23_cw"/>
    <trip id="6121" depart="10.80" from="e24_w" to="e24_cs"/>
    <trip id="6124" depart="10.81" from="e33_main_e" to="e33_side_cn"/>
    <trip id="6237" depart="11.01" from="e45_n" to="e45_ce"/>
    <trip id="6263" depart="11.05" from="e34_side_n" to="e34_side_cs"/>
    <trip id="6276" depart="11.08" from="e41_w" to="e41_cn"/>
    <trip id="6283" depart="11.09" from="e13_s" to="e13_cw"/>
    <trip id="6296" depart="11.11" from="e15_ne" to="e15_cnw"/>
    <trip id="6323" depart="11.16" from="e25_w" to="e25_cs.35"/>
    <trip id="6360" depart="11.23" from="e32_main_w" to="e32_side_cn"/>
    <trip id="6373" depart="11.25" from="e41_n" to="e41_cs"/>
    <trip id="6379" depart="11.26" from="e22_n" to="e22_cw"/>
    <trip id="6437" depart="11.36" from="e23_n" to="e23_ce"/>
    <trip id="6480" depart="11.44" from="e24_s" to="e24_ce"/>
    <trip id="6577" depart="11.61" from="e41_n" to="e41_cw"/>
    <trip id="6595" depart="11.64" from="e43_w" to="e43_ce"/>
    <trip id="6632" depart="11.71" from="e12_s" to="e12_cw"/>
    <trip id="6646" depart="11.73" from="e22_e" to="e22_cn"/>
    <trip id="6731" depart="11.88" from="e42_e2ce" to="e42_cw2s"/>
    <trip id="6773" depart="11.96" from="e31_main_w" to="e31_main_ce"/>
    <trip id="6837" depart="12.07" from="e41_w" to="e41_cn"/>
    <trip id="6841" depart="12.08" from="e45_s" to="e45_cw"/>
    <trip id="6888" depart="12.16" from="e34_main_w" to="e34_side_cs"/>
    <trip id="6896" depart="12.17" from="e13_w" to="e13_cs"/>
    <trip id="6929" depart="12.23" from="e31_main_w" to="e31_side_cs"/>
    <trip id="6972" depart="12.31" from="e41_n" to="e41_cs"/>
    <trip id="6988" depart="12.33" from="e23_s" to="e23_cn"/>
    <trip id="7027" depart="12.40" from="e15_nw" to="e15_cs"/>
    <trip id="7030" depart="12.41" from="e32_main_w" to="e32_main_ce"/>
    <trip id="7031" depart="12.41" from="e42_w2cw" to="e42_ce2e"/>
    <trip id="7032" depart="12.41" from="e32_main_w" to="e32_side_cn"/>
    <trip id="7041" depart="12.43" from="e25_w" to="e25_cs.35"/>
    <trip id="7079" depart="12.50" from="e34_main_w" to="e34_side_cn"/>
    <trip id="7090" depart="12.51" from="e22_s" to="e22_cn"/>
    <trip id="7139" depart="12.60" from="e43_n" to="e43_cs"/>
    <trip id="7173" depart="12.66" from="e35_main_w" to="e35_main_ce"/>
    <trip id="7210" depart="12.73" from="e11_e" to="e11_cs"/>
    <trip id="7223" depart="12.75" from="e22_s" to="e22_cn"/>
    <trip id="7235" depart="12.77" from="e31_side_n" to="e31_side_cs"/>
    <trip id="7282" depart="12.85" from="e24_e" to="e24_cs"/>
    <trip id="7304" depart="12.89" from="e33_main_e" to="e33_side_cn"/>
    <trip id="7322" depart="12.92" from="e22_e" to="e22_cn"/>
    <trip id="7422" depart="13.10" from="e41_w" to="e41_cs"/>
    <trip id="7426" depart="13.11" from="e32_main_w" to="e32_side_cn"/>
    <trip id="7439" depart="13.13" from="e42_w2cw" to="e42_ce2n"/>
    <trip id="7448" depart="13.15" from="e42_n2ce" to="e42_ce2e"/>
    <trip id="7561" depart="13.35" from="e24_s" to="e24_cn"/>
    <trip id="7651" depart="13.50" from="e25_n" to="e25_ce"/>
    <trip id="7669" depart="13.54" from="e43_e" to="e43_cn"/>
    <trip id="7696" depart="13.58" from="e21_s" to="e21_cw"/>
    <trip id="7718" depart="13.62" from="e45_n" to="e45_ce"/>
    <trip id="7741" depart="13.66" from="e42_n2ce" to="e42_cw2w"/>
    <trip id="7746" depart="13.67" from="e31_side_s" to="e31_main_ce"/>
    <trip id="7749" depart="13.68" from="e32_side_s" to="e32_main_cw"/>
    <trip id="7759" depart="13.70" from="e31_side_n" to="e31_main_cw"/>
    <trip id="7768" depart="13.71" from="e22_n" to="e22_cs"/>
    <trip id="7770" depart="13.71" from="e42_e2ce" to="e42_cw2w"/>
    <trip id="7826" depart="13.81" from="e23_w" to="e23_ce"/>
    <trip id="7859" depart="13.87" from="e41_n" to="e41_cw"/>
    <trip id="7877" depart="13.90" from="e22_n" to="e22_cs"/>
    <trip id="7897" depart="13.94" from="e41_e" to="e41_cs"/>
    <trip id="7911" depart="13.96" from="e42_n2ce" to="e42_ce2e"/>
    <trip id="7939" depart="14.01" from="e44_n" to="e44_cs"/>
    <trip id="7946" depart="14.03" from="e45_s" to="e45_cn"/>
    <trip id="7950" depart="14.03" from="e42_e2ce" to="e42_cw2s"/>
    <trip id="8001" depart="14.12" from="e31_side_s" to="e31_main_cw"/>
    <trip id="8022" depart="14.16" from="e22_n" to="e22_cs"/>
    <trip id="8057" depart="14.22" from="e12_w" to="e12_cs"/>
    <trip id="8060" depart="14.23" from="e41_n" to="e41_cw"/>
    <trip id="8091" depart="14.28" from="e34_side_s" to="e34_side_cn"/>
    <trip id="8103" depart="14.30" from="e31_side_s" to="e31_side_cn"/>
    <trip id="8143" depart="14.37" from="e41_n" to="e41_ce"/>
    <trip id="8245" depart="14.55" from="e41_n" to="e41_ce"/>
    <trip id="8248" depart="14.56" from="e32_main_e" to="e32_side_cn"/>
    <trip id="8272" depart="14.60" from="e25_s" to="e25_cn"/>
    <trip id="8284" depart="14.62" from="e43_n" to="e43_cw"/>
    <trip id="8398" depart="14.82" from="e34_main_e" to="e34_side_cn"/>
    <trip id="8426" depart="14.87" from="e12_w" to="e12_ce"/>
    <trip id="8429" depart="14.88" from="e24_s" to="e24_cw"/>
    <trip id="8522" depart="15.04" from="e11_e" to="e11_cs"/>
    <trip id="8564" depart="15.12" from="e25_n" to="e25_ce"/>
    <trip id="8570" depart="15.13" from="e14_e" to="e14_cw"/>
    <trip id="8576" depart="15.14" from="e34_main_e" to="e34_side_cs"/>
    <trip id="8580" depart="15.14" from="e31_side_s" to="e31_main_ce"/>
    <trip id="8581" depart="15.15" from="e45_s" to="e45_ce"/>
    <trip id="8590" depart="15.16" from="e45_w" to="e45_ce"/>
    <trip id="8597" depart="15.17" from="e42_n2ce" to="e42_cw2s"/>
    <trip id="8615" depart="15.21" from="e23_s" to="e23_cw"/>
    <trip id="8652" depart="15.27" from="e34_main_e" to="e34_side_cn"/>
    <trip id="8680" depart="15.32" from="e15_s" to="e15_cnw"/>
    <trip id="8698" depart="15.35" from="e21_n" to="e21_ce"/>
    <trip id="8728" depart="15.41" from="e34_main_w" to="e34_side_cn"/>
    <trip id="8754" depart="15.45" from="e24_e" to="e24_cw"/>
    <trip id="8763" depart="15.47" from="e25_w" to="E0"/>
    <trip id="8779" depart="15.50" from="e34_main_e" to="e34_side_cn"/>
    <trip id="8821" depart="15.57" from="e14_w" to="e14_cs"/>
    <trip id="8826" depart="15.58" from="e32_main_w" to="e32_side_cn"/>
    <trip id="8840" depart="15.60" from="e43_n" to="e43_ce"/>
    <trip id="8842" depart="15.61" from="e34_side_n" to="e34_main_ce"/>
    <trip id="8910" depart="15.73" from="e35_side_n" to="e35_side_cs"/>
    <trip id="8914" depart="15.73" from="e14_s" to="e14_ce"/>
    <trip id="8917" depart="15.74" from="e21_n" to="e21_ce"/>
    <trip id="8980" depart="15.85" from="e13_w" to="e13_ce"/>
    <trip id="8994" depart="15.88" from="e31_main_w" to="e31_side_cn"/>
    <trip id="9090" depart="16.04" from="e41_n" to="e41_ce"/>
    <trip id="9113" depart="16.09" from="e35_side_n" to="e35_main_cw"/>
    <trip id="9125" depart="16.11" from="e25_w" to="e25_cn"/>
    <trip id="9230" depart="16.29" from="e21_s" to="e21_ce"/>
    <trip id="9250" depart="16.33" from="e23_n" to="e23_cw"/>
    <trip id="9277" depart="16.37" from="e25_w" to="E0"/>
    <trip id="9294" depart="16.40" from="e32_side_s" to="e32_side_cn"/>
    <trip id="9322" depart="16.45" from="e42_s2cw" to="e42_cw2ce"/>
    <trip id="9383" depart="16.56" from="e42_w2cw" to="e42_ce2e"/>
    <trip id="9423" depart="16.63" from="e22_e" to="e22_cw"/>
    <trip id="9431" depart="16.65" from="e45_n" to="e45_cs"/>
    <trip id="9432" depart="16.65" from="e41_s" to="e41_ce"/>
    <trip id="9433" depart="16.65" from="e42_s2cw" to="e42_ce2e"/>
    <trip id="9434" depart="16.65" from="e41_n" to="e41_ce"/>
    <trip id="9453" depart="16.69" from="e43_e" to="e43_cs"/>
    <trip id="9457" depart="16.69" from="e12_s" to="e12_ce"/>
    <trip id="9508" depart="16.78" from="e25_w" to="E0"/>
    <trip id="9509" depart="16.78" from="e21_w" to="e21_cs"/>
    <trip id="9597" depart="16.94" from="e13_w" to="e13_ce"/>
    <trip id="9623" depart="16.99" from="e31_side_s" to="e31_main_cw"/>
    <trip id="9645" depart="17.02" from="e35_main_w" to="e35_side_cs"/>
    <trip id="9688" depart="17.10" from="e31_side_n" to="e31_main_cw"/>
    <trip id="9692" depart="17.11" from="e22_w" to="e22_cs"/>
    <trip id="9698" depart="17.12" from="e23_w" to="e23_cs"/>
    <trip id="9731" depart="17.18" from="e12_e" to="e12_cw"/>
    <trip id="9747" depart="17.20" from="e23_n" to="e23_cw"/>
    <trip id="9774" depart="17.25" from="e34_main_e" to="e34_main_cw"/>
    <trip id="9864" depart="17.41" from="e24_s" to="e24_cw"/>
    <trip id="9945" depart="17.55" from="e24_w" to="e24_cn"/>
    <trip id="9956" depart="17.57" from="e11_s" to="e11_cw"/>
    <trip id="9973" depart="17.60" from="e23_n" to="e23_ce"/>
    <trip id="10000" depart="17.65" from="e13_s" to="e13_cw"/>
    <trip id="10005" depart="17.66" from="e22_n" to="e22_cw"/>
    <trip id="10010" depart="17.67" from="e25_e" to="e25_cn"/>
    <trip id="10037" depart="17.72" from="e21_e" to="e21_cn"/>
    <trip id="10087" depart="17.80" from="e11_e" to="e11_cw"/>
    <trip id="10110" depart="17.85" from="e15_s" to="e15_cne"/>
    <trip id="10115" depart="17.85" from="e21_e" to="e21_cs"/>
    <trip id="10128" depart="17.88" from="e41_s" to="e41_cw"/>
    <trip id="10144" depart="17.91" from="e22_n" to="e22_cw"/>
    <trip id="10170" depart="17.95" from="e34_side_s" to="e34_main_ce"/>
    <trip id="10175" depart="17.96" from="e21_n" to="e21_cs"/>
    <trip id="10223" depart="18.04" from="e34_side_s" to="e34_main_cw"/>
    <trip id="10264" depart="18.12" from="e42_n2ce" to="e42_cw2s"/>
    <trip id="10314" depart="18.21" from="e31_main_w" to="e31_side_cn"/>
    <trip id="10322" depart="18.22" from="e32_side_s" to="e32_main_cw"/>
    <trip id="10324" depart="18.22" from="e43_n" to="e43_cs"/>
    <trip id="10398" depart="18.35" from="e31_main_w" to="e31_main_ce"/>
    <trip id="10413" depart="18.38" from="e25_e" to="e25_cn"/>
    <trip id="10497" depart="18.53" from="e41_s" to="e41_cw"/>
    <trip id="10510" depart="18.55" from="e11_e" to="e11_cw"/>
    <trip id="10530" depart="18.59" from="e22_s" to="e22_cw"/>
    <trip id="10543" depart="18.61" from="e31_main_w" to="e31_main_ce"/>
    <trip id="10619" depart="18.74" from="e25_n" to="e25_ce"/>
    <trip id="10657" depart="18.81" from="e33_main_e" to="e33_side_cs"/>
    <trip id="10713" depart="18.91" from="e24_w" to="e24_ce"/>
    <trip id="10729" depart="18.94" from="e23_s" to="e23_ce"/>
    <trip id="10738" depart="18.95" from="e42_n2ce" to="e42_ce2e"/>
    <trip id="10753" depart="18.98" from="e42_s2cw" to="e42_ce2e"/>
    <trip id="10765" depart="19.00" from="e21_n" to="e21_cs"/>
    <trip id="10809" depart="19.08" from="e23_w" to="e23_cn"/>
    <trip id="10839" depart="19.13" from="e21_e" to="e21_cw"/>
    <trip id="10932" depart="19.30" from="e32_side_n" to="e32_main_ce"/>
    <trip id="10942" depart="19.31" from="e22_w" to="e22_ce"/>
    <trip id="10982" depart="19.38" from="e42_cw2ce" to="e42_ce2e"/>
    <trip id="11005" depart="19.42" from="e21_s" to="e21_cn"/>
    <trip id="11034" depart="19.48" from="e42_w2cw" to="e42_ce2e"/>
    <trip id="11060" depart="19.52" from="e12_e" to="e12_cs"/>
    <trip id="11119" depart="19.63" from="e33_side_s" to="e33_main_cw"/>
    <trip id="11208" depart="19.78" from="e13_e" to="e13_cw"/>
    <trip id="11214" depart="19.79" from="e31_side_n" to="e31_main_ce"/>
    <trip id="11228" depart="19.82" from="e24_n" to="e24_cs"/>
    <trip id="11275" depart="19.90" from="e33_main_w" to="e33_main_ce"/>
    <trip id="11314" depart="19.97" from="e35_side_n" to="e35_main_cw"/>
    <trip id="11348" depart="20.03" from="e11_e" to="e11_cs"/>
    <trip id="11431" depart="20.18" from="e31_main_e" to="e31_side_cs"/>
    <trip id="11501" depart="20.30" from="e45_e" to="e45_cs"/>
    <trip id="11510" depart="20.32" from="e41_s" to="e41_cw"/>
    <trip id="11514" depart="20.32" from="e42_e2ce" to="e42_cw2s"/>
    <trip id="11516" depart="20.33" from="e31_side_n" to="e31_main_cw"/>
    <trip id="11529" depart="20.35" from="e43_n" to="e43_ce"/>
    <trip id="11548" depart="20.38" from="e22_n" to="e22_ce"/>
    <trip id="11580" depart="20.44" from="e32_main_e" to="e32_side_cs"/>
    <trip id="11607" depart="20.49" from="e32_main_e" to="e32_main_cw"/>
    <trip id="11717" depart="20.68" from="e14_s" to="e14_ce"/>
    <trip id="11768" depart="20.77" from="e44_n" to="e44_cs"/>
    <trip id="11772" depart="20.78" from="e32_side_s" to="e32_side_cn"/>
    <trip id="11812" depart="20.85" from="e45_e" to="e45_cn"/>
    <trip id="11820" depart="20.86" from="e24_e" to="e24_cw"/>
    <trip id="11833" depart="20.89" from="e42_w2cw" to="e42_ce2e"/>
    <trip id="11840" depart="20.90" from="e21_w" to="e21_cs"/>
    <trip id="11844" depart="20.91" from="e41_e" to="e41_cs"/>
    <trip id="11924" depart="21.05" from="e34_main_w" to="e34_main_ce"/>
    <trip id="11963" depart="21.12" from="e33_main_e" to="e33_main_cw"/>
    <trip id="11979" depart="21.14" from="e34_side_s" to="e34_side_cn"/>
    <trip id="11985" depart="21.15" from="e14_e" to="e14_cw"/>
    <trip id="12009" depart="21.20" from="e25_s" to="e25_ce"/>
    <trip id="12011" depart="21.20" from="e41_w" to="e41_cs"/>
    <trip id="12041" depart="21.25" from="e24_n" to="e24_ce"/>
    <trip id="12054" depart="21.28" from="e32_side_n" to="e32_side_cs"/>
    <trip id="12083" depart="21.33" from="e33_main_w" to="e33_side_cn"/>
    <trip id="12166" depart="21.47" from="e25_s" to="e25_cw"/>
    <trip id="12207" depart="21.55" from="e24_n" to="e24_ce"/>
    <trip id="12216" depart="21.56" from="e41_w" to="e41_cs"/>
    <trip id="12217" depart="21.56" from="e22_w" to="e22_ce"/>
    <trip id="12229" depart="21.59" from="e42_cw2ce" to="e42_ce2e"/>
    <trip id="12243" depart="21.61" from="e43_s" to="e43_ce"/>
    <trip id="12304" depart="21.72" from="e23_e" to="e23_cs"/>
    <trip id="12319" depart="21.74" from="e22_w" to="e22_ce"/>
    <trip id="12322" depart="21.75" from="e35_side_s" to="e35_main_cw"/>
    <trip id="12342" depart="21.78" from="e25_n" to="e25_cs.35"/>
    <trip id="12410" depart="21.90" from="e22_e" to="e22_cs"/>
    <trip id="12414" depart="21.91" from="e43_s" to="e43_ce"/>
    <trip id="12438" depart="21.95" from="e45_w" to="e45_cs"/>
    <trip id="12448" depart="21.97" from="e45_w" to="e45_cn"/>
    <trip id="12563" depart="22.17" from="e32_main_w" to="e32_side_cs"/>
    <trip id="12592" depart="22.23" from="e23_e" to="e23_cn"/>
    <trip id="12625" depart="22.28" from="e12_e" to="e12_cw"/>
    <trip id="12652" depart="22.33" from="e45_e" to="e45_cn"/>
    <trip id="12675" depart="22.37" from="e34_main_e" to="e34_main_cw"/>
    <trip id="12676" depart="22.37" from="e25_w" to="e25_ce"/>
    <trip id="12721" depart="22.45" from="e15_ne" to="e15_cs"/>
    <trip id="12803" depart="22.60" from="e13_w" to="e13_ce"/>
    <trip id="12821" depart="22.63" from="e15_ne" to="e15_cs"/>