<?xml version="1.0" encoding="UTF-8"?>

<!-- generated on 2026-01-23 17:37:02.709935 by Eclipse SUMO randomTrips.py UNKNOWN
<configuration>
    <net-file value="data/mega_catalogue_v2.net.xml"/>
    <output-trip-file value="random_traffic.rou.xml"/>
    <fringe-factor value="10"/>
    <min-distance value="50.0"/>
    <end value="600.0"/>
    <period value="0.0017651018230170315"/>
    <duarouter-routing-algorithm value="CH"/>
    <duarouter-routing-threads value="6"/>
</configuration>
-->

<!-- generated on 2026-01-23T17:36:59.759016+01:00 by Eclipse SUMO duarouter 1.25.0
<duarouterConfiguration xmlns:xsi="http://www.w3.org/2001/XMLSchema-instance" xsi:noNamespaceSchemaLocation="http://sumo.dlr.de/xsd/duarouterConfiguration.xsd">

    <input>
        <net-file value="data/mega_catalogue_v2.net.xml"/>
        <route-files value="random_traffic.rou.xml"/>
    </input>

    <output>
        <output-file value="routes.rou.xml"/>
        <alternatives-output value="NUL"/>
    </output>

    <processing>
        <routing-threads value="6"/>
        <routing-algorithm value="CH"/>
    </processing>

    <time>
        <begin value="0"/>
        <end value="600.0"/>
    </time>

    <report>
        <no-warnings value="true"/>
        <ignore-errors value="true"/>
        <no-step-log value="true"/>
    </report>

</duarouterConfiguration>
-->

<routes xmlns:xsi="http://www.w3.org/2001/XMLSchema-instance" xsi:noNamespaceSchemaLocation="http://sumo.dlr.de/xsd/routes_file.xsd">
    <vehicle id="56" depart="0.10">
        <route edges="e43_w e43_ce"/>
    </vehicle>
    <vehicle id="78" depart="0.14">
        <route edges="e21_n e21_ce"/>
    </vehicle>
    <vehicle id="88" depart="0.16">
        <route edges="e25_cs e25_cs.35"/>
    </vehicle>
    <vehicle id="106" depart="0.19">
        <route edges="e45_e e45_cw"/>
    </vehicle>
    <vehicle id="118" depart="0.21">
        <route edges="e33_main_e e33_main_cw"/>
    </vehicle>
    <vehicle id="228" depart="0.40">
        <route edges="e22_e e22_cw"/>
    </vehicle>
    <vehicle id="242" depart="0.43">
        <route edges="e21_n e21_ce"/>
    </vehicle>
    <vehicle id="279" depart="0.49">
        <route edges="e42_s2cw e42_cw2ce e42_ce2e"/>
    </vehicle>
    <vehicle id="321" depart="0.57">
        <route edges="e25_w e25_w.89 e25_ce"/>
    </vehicle>
    <vehicle id="334" depart="0.59">
        <route edges="e33_side_n e33_main_cw"/>
    </vehicle>
    <vehicle id="358" depart="0.63">
        <route edges="e45_e e45_cw"/>
    </vehicle>
    <vehicle id="365" depart="0.64">
        <route edges="e23_s e23_ce"/>
    </vehicle>
    <vehicle id="396" depart="0.70">
        <route edges="e22_n e22_cs"/>
    </vehicle>
    <vehicle id="400" depart="0.71">
        <route edges="e32_main_w e32_main_ce"/>
    </vehicle>
    <vehicle id="405" depart="0.71">
        <route edges="e35_side_s e35_main_ce"/>
    </vehicle>
    <vehicle id="435" depart="0.77">
        <route edges="e21_w e21_cs"/>
    </vehicle>
    <vehicle id="452" depart="0.80">
        <route edges="e33_side_s e33_main_cw"/>
    </vehicle>
    <vehicle id="542" depart="0.96">
        <route edges="e32_side_s e32_main_cw"/>
    </vehicle>
    <vehicle id="587" depart="1.04">
        <route edges="e32_side_s e32_side_cn"/>
    </vehicle>
    <vehicle id="596" depart="1.05">
        <route edges="e23_n e23_ce"/>
    </vehicle>
    <vehicle id="611" depart="1.08">
        <route edges="e22_w e22_ce"/>
    </vehicle>
    <vehicle id="635" depart="1.12">
        <route edges="e43_w e43_ce"/>
    </vehicle>
    <vehicle id="646" depart="1.14">
        <route edges="e23_w e23_cs"/>
    </vehicle>
    <vehicle id="647" depart="1.14">
        <route edges="e15_nw e15_cs"/>
    </vehicle>
    <vehicle id="665" depart="1.17">
        <route edges="e45_e e45_cs"/>
    </vehicle>
    <vehicle id="702" depart="1.24">
        <route edges="e31_side_s e31_main_cw"/>
    </vehicle>
    <vehicle id="739" depart="1.30">
        <route edges="e45_s e45_ce"/>
    </vehicle>
    <vehicle id="802" depart="1.42">
        <route edges="e12_w e12_ce"/>
    </vehicle>
    <vehicle id="803" depart="1.42">
        <route edges="e25_n e25_cw"/>
    </vehicle>
    <vehicle id="817" depart="1.44">
        <route edges="e31_side_n e31_main_ce"/>
    </vehicle>
    <vehicle id="839" depart="1.48">
        <route edges="e25_w e25_w.89 e25_cn"/>
    </vehicle>
    <vehicle id="852" depart="1.50">
        <route edges="e41_s e41_cn"/>
    </vehicle>
    <vehicle id="855" depart="1.51">
        <route edges="e33_side_n e33_main_cw"/>
    </vehicle>
    <vehicle id="869" depart="1.53">
        <route edges="e34_main_e e34_side_cs"/>
    </vehicle>
    <vehicle id="873" depart="1.54">
        <route edges="e22_s e22_cn"/>
    </vehicle>
    <vehicle id="875" depart="1.54">
        <route edges="e23_e e23_cn"/>
    </vehicle>
    <vehicle id="881" depart="1.56">
        <route edges="e22_s e22_cn"/>
    </vehicle>
    <vehicle id="934" depart="1.65">
        <route edges="e14_e e14_cs"/>
    </vehicle>
    <vehicle id="963" depart="1.70">
        <route edges="e43_e e43_cw"/>
    </vehicle>
    <vehicle id="992" depart="1.75">
        <route edges="e43_n e43_cw"/>
    </vehicle>
    <vehicle id="1022" depart="1.80">
        <route edges="e31_side_n e31_main_ce"/>
    </vehicle>
    <vehicle id="1070" depart="1.89">
        <route edges="e43_e e43_cn"/>
    </vehicle>
    <vehicle id="1092" depart="1.93">
        <route edges="e34_side_n e34_main_ce"/>
    </vehicle>
    <vehicle id="1120" depart="1.98">
        <route edges="e23_n e23_ce"/>
    </vehicle>
    <vehicle id="1121" depart="1.98">
        <route edges="e42_e2ce e42_ce2cw e42_cw2w"/>
    </vehicle>
    <vehicle id="1153" depart="2.04">
        <route edges="e32_side_s e32_side_cn"/>
    </vehicle>
    <vehicle id="1177" depart="2.08">
        <route edges="e41_e e41_cw"/>
    </vehicle>
    <vehicle id="1183" depart="2.09">
        <route edges="e33_main_e e33_main_cw"/>
    </vehicle>
    <vehicle id="1188" depart="2.10">
        <route edges="e13_e e13_cw"/>
    </vehicle>
    <vehicle id="1201" depart="2.12">
        <route edges="e31_main_w e31_main_ce"/>
    </vehicle>
    <vehicle id="1291" depart="2.28">
        <route edges="e31_side_n e31_main_cw"/>
    </vehicle>
    <vehicle id="1297" depart="2.29">
        <route edges="e45_s e45_cw"/>
    </vehicle>
    <vehicle id="1315" depart="2.32">
        <route edges="e35_main_e e35_side_cn"/>
    </vehicle>
    <vehicle id="1371" depart="2.42">
        <route edges="e13_s e13_cw"/>
    </vehicle>
    <vehicle id="1375" depart="2.43">
        <route edges="e22_e e22_cw"/>
    </vehicle>
    <vehicle id="1410" depart="2.49">
        <route edges="e15_ne e15_cs"/>
    </vehicle>
    <vehicle id="1419" depart="2.50">
        <route edges="e41_w e41_cs"/>
    </vehicle>
    <vehicle id="1439" depart="2.54">
        <route edges="e32_side_n e32_main_cw"/>
    </vehicle>
    <vehicle id="1451" depart="2.56">
        <route edges="e42_s2cw e42_cw2w"/>
    </vehicle>
    <vehicle id="1484" depart="2.62">
        <route edges="e22_s e22_cw"/>
    </vehicle>
    <vehicle id="1489" depart="2.63">
        <route edges="e33_main_e e33_main_cw"/>
    </vehicle>
    <vehicle id="1495" depart="2.64">
        <route edges="e35_main_w e35_side_cn"/>
    </vehicle>
    <vehicle id="1510" depart="2.67">
        <route edges="e21_n e21_cw"/>
    </vehicle>
    <vehicle id="1525" depart="2.69">
        <route edges="e45_s e45_cn"/>
    </vehicle>
    <vehicle id="1538" depart="2.71">
        <route edges="e44_w e44_ce"/>
    </vehicle>
    <vehicle id="1557" depart="2.75">
        <route edges="e15_nw e15_cs"/>
    </vehicle>
    <vehicle id="1578" depart="2.79">
        <route edges="e34_main_e e34_side_cn"/>
    </vehicle>
    <vehicle id="1602" depart="2.83">
        <route edges="e34_main_w e34_side_cn"/>
    </vehicle>
    <vehicle id="1605" depart="2.83">
        <route edges="e24_w e24_ce"/>
    </vehicle>
    <vehicle id="1674" depart="2.95">
        <route edges="e13_w e13_ce"/>
    </vehicle>
    <vehicle id="1675" depart="2.96">
        <route edges="e15_s e15_cnw"/>
    </vehicle>
    <vehicle id="1686" depart="2.98">
        <route edges="e21_w e21_cn"/>
    </vehicle>
    <vehicle id="1713" depart="3.02">
        <route edges="e22_e e22_cw"/>
    </vehicle>
    <vehicle id="1763" depart="3.11">
        <route edges="e31_main_e e31_main_cw"/>
    </vehicle>
    <vehicle id="1828" depart="3.23">
        <route edges="e23_n e23_cs"/>
    </vehicle>
    <vehicle id="1834" depart="3.24">
        <route edges="e33_main_w e33_side_cn"/>
    </vehicle>
    <vehicle id="1884" depart="3.33">
        <route edges="e42_w2cw e42_cw2s"/>
    </vehicle>
    <vehicle id="1912" depart="3.37">
        <route edges="e32_main_w e32_main_ce"/>
    </vehicle>
    <vehicle id="1930" depart="3.41">
        <route edges="e25_w e25_w.89 e25_cn"/>
    </vehicle>
    <vehicle id="1943" depart="3.43">
        <route edges="e14_s e14_cw"/>
    </vehicle>
    <vehicle id="1985" depart="3.50">
        <route edges="e13_s e13_cw"/>
    </vehicle>
    <vehicle id="1992" depart="3.52">
        <route edges="e34_main_e e34_side_cn"/>
    </vehicle>
    <vehicle id="1993" depart="3.52">
        <route edges="e23_e e23_cs"/>
    </vehicle>
    <vehicle id="2042" depart="3.60">
        <route edges="e41_n e41_ce"/>
    </vehicle>
    <vehicle id="2063" depart="3.64">
        <route edges="e34_side_n e34_main_cw"/>
    </vehicle>
    <vehicle id="2068" depart="3.65">
        <route edges="e43_s e43_ce"/>
    </vehicle>
    <vehicle id="2141" depart="3.78">
        <route edges="e33_main_e e33_side_cn"/>
    </vehicle>
    <vehicle id="2147" depart="3.79">
        <route edges="e22_e e22_cs"/>
    </vehicle>
    <vehicle id="2150" depart="3.79">
        <route edges="e25_w E0"/>
    </vehicle>
    <vehicle id="2152" depart="3.80">
        <route edges="e25_w E0"/>
    </vehicle>
    <vehicle id="2155" depart="3.80">
        <route edges="e24_e e24_cs"/>
    </vehicle>
    <vehicle id="2158" depart="3.81">
        <route edges="e24_n e24_ce"/>
    </vehicle>
    <vehicle id="2166" depart="3.82">
        <route edges="e33_side_s e33_main_cw"/>
    </vehicle>
    <vehicle id="2181" depart="3.85">
        <route edges="e42_s2cw e42_cw2ce e42_ce2e"/>
    </vehicle>
    <vehicle id="2209" depart="3.90">
        <route edges="e41_e e41_cw"/>
    </vehicle>
    <vehicle id="2215" depart="3.91">
        <route edges="e15_nw e15_cne"/>
    </vehicle>
    <vehicle id="2261" depart="3.99">
        <route edges="e23_e e23_cw"/>
    </vehicle>
    <vehicle id="2357" depart="4.16">
        <route edges="e33_main_w e33_side_cn"/>
    </vehicle>
    <vehicle id="2365" depart="4.17">
        <route edges="e45_w e45_cs"/>
    </vehicle>
    <vehicle id="2372" depart="4.19">
        <route edges="e24_w e24_cs"/>
    </vehicle>
    <vehicle id="2457" depart="4.34">
        <route edges="e31_side_s e31_side_cn"/>
    </vehicle>
    <vehicle id="2499" depart="4.41">
        <route edges="e35_side_s e35_main_ce"/>
    </vehicle>
    <vehicle id="2505" depart="4.42">
        <route edges="e41_s e41_cn"/>
    </vehicle>
    <vehicle id="2545" depart="4.49">
        <route edges="e25_w e25_w.89 e25_cn"/>
    </vehicle>
    <vehicle id="2596" depart="4.58">
        <route edges="e24_n e24_ce"/>
    </vehicle>
    <vehicle id="2671" depart="4.71">
        <route edges="e35_side_s e35_side_cn"/>
    </vehicle>
    <vehicle id="2756" depart="4.86">
        <route edges="e41_w e41_ce"/>
    </vehicle>
    <vehicle id="2788" depart="4.92">
        <route edges="e41_w e41_ce"/>
    </vehicle>
    <vehicle id="2811" depart="4.96">
        <route edges="e33_side_s e33_main_cw"/>
    </vehicle>
    <vehicle id="2842" depart="5.02">
        <route edges="e41_w e41_cs"/>
    </vehicle>
    <vehicle id="2859" depart="5.05">
        <route edges="e31_main_e e31_side_cn"/>
    </vehicle>
    <vehicle id="2891" depart="5.10">
        <route edges="e34_side_s e34_main_cw"/>
    </vehicle>
    <vehicle id="2897" depart="5.11">
        <route edges="e23_s e23_cw"/>
    </vehicle>
    <vehicle id="2940" depart="5.19">
        <route edges="e35_main_e e35_side_cs"/>
    </vehicle>
    <vehicle id="2993" depart="5.28">
        <route edges="e41_n e41_ce"/>
    </vehicle>
    <vehicle id="3049" depart="5.38">
        <route edges="e12_e e12_cs"/>
    </vehicle>
    <vehicle id="3068" depart="5.42">
        <route edges="e34_side_n e34_main_ce"/>
    </vehicle>
    <vehicle id="3079" depart="5.43">
        <route edges="e23_w e23_cs"/>
    </vehicle>
    <vehicle id="3089" depart="5.45">
        <route edges="e24_e e24_cn"/>
    </vehicle>
    <vehicle id="3138" depart="5.54">
        <route edges="e43_e e43_cs"/>
    </vehicle>
    <vehicle id="3181" depart="5.61">
        <route edges="e42_e2ce e42_ce2n"/>
    </vehicle>
    <vehicle id="3206" depart="5.66">
        <route edges="e24_s e24_cw"/>
    </vehicle>
    <vehicle id="3225" depart="5.69">
        <route edges="e34_side_s e34_side_cn"/>
    </vehicle>
    <vehicle id="3226" depart="5.69">
        <route edges="e35_main_w e35_main_ce"/>
    </vehicle>
    <vehicle id="3247" depart="5.73">
        <route edges="e22_e e22_cw"/>
    </vehicle>
    <vehicle id="3282" depart="5.79">
        <route edges="e24_e e24_cn"/>
    </vehicle>
    <vehicle id="3321" depart="5.86">
        <route edges="e15_nw e15_cne"/>
    </vehicle>
    <vehicle id="3351" depart="5.91">
        <route edges="e33_main_e e33_main_cw"/>
    </vehicle>
    <vehicle id="3382" depart="5.97">
        <route edges="e21_n e21_cw"/>
    </vehicle>
    <vehicle id="3383" depart="5.97">
        <route edges="e23_n e23_cs"/>
    </vehicle>
    <vehicle id="3390" depart="5.98">
        <route edges="e13_w e13_ce"/>
    </vehicle>
    <vehicle id="3409" depart="6.02">
        <route edges="e24_w e24_cs"/>
    </vehicle>
    <vehicle id="3460" depart="6.11">
        <route edges="e25_w e25_w.89 e25_cn"/>
    </vehicle>
    <vehicle id="3481" depart="6.14">
        <route edges="e43_s e43_cn"/>
    </vehicle>
    <vehicle id="3490" depart="6.16">
        <route edges="e25_s e25_cn"/>
    </vehicle>
    <vehicle id="3570" depart="6.30">
        <route edges="e42_e2ce e42_ce2n"/>
    </vehicle>
    <vehicle id="3613" depart="6.38">
        <route edges="e33_main_e e33_side_cn"/>
    </vehicle>
    <vehicle id="3652" depart="6.45">
        <route edges="e42_n2ce e42_ce2cw e42_cw2w"/>
    </vehicle>
    <vehicle id="3656" depart="6.45">
        <route edges="e34_main_w e34_side_cs"/>
    </vehicle>
    <vehicle id="3703" depart="6.54">
        <route edges="e23_e e23_cw"/>
    </vehicle>
    <vehicle id="3726" depart="6.58">
        <route edges="e15_s e15_cnw"/>
    </vehicle>
    <vehicle id="3740" depart="6.60">
        <route edges="e41_s e41_ce"/>
    </vehicle>
    <vehicle id="3756" depart="6.63">
        <route edges="e33_side_s e33_main_ce"/>
    </vehicle>
    <vehicle id="3798" depart="6.70">
        <route edges="e35_main_e e35_main_cw"/>
    </vehicle>
    <vehicle id="3828" depart="6.76">
        <route edges="e41_n e41_ce"/>
    </vehicle>
    <vehicle id="3853" depart="6.80">
        <route edges="e34_side_s e34_side_cn"/>
    </vehicle>
    <vehicle id="3903" depart="6.89">
        <route edges="e25_s e25_cn"/>
    </vehicle>
    <vehicle id="3918" depart="6.92">
        <route edges="e31_side_n e31_main_ce"/>
    </vehicle>
    <vehicle id="3971" depart="7.01">
        <route edges="e23_w e23_ce"/>
    </vehicle>
    <vehicle id="3973" depart="7.01">
        <route edges="e35_main_e e35_main_cw"/>
    </vehicle>
    <vehicle id="4011" depart="7.08">
        <route edges="e33_main_e e33_side_cs"/>
    </vehicle>
    <vehicle id="4142" depart="7.31">
        <route edges="e31_main_e e31_side_cs"/>
    </vehicle>
    <vehicle id="4176" depart="7.37">
        <route edges="e35_main_w e35_main_ce"/>
    </vehicle>
    <vehicle id="4213" depart="7.44">
        <route edges="e15_s e15_cnw"/>
    </vehicle>
    <vehicle id="4224" depart="7.46">
        <route edges="e13_w e13_cs"/>
    </vehicle>
    <vehicle id="4249" depart="7.50">
        <route edges="e22_w e22_ce"/>
    </vehicle>
    <vehicle id="4324" depart="7.63">
        <route edges="e15_nw e15_cne"/>
    </vehicle>
    <vehicle id="4330" depart="7.64">
        <route edges="e12_w e12_cs"/>
    </vehicle>
    <vehicle id="4358" depart="7.69">
        <route edges="e13_w e13_ce"/>
    </vehicle>
    <vehicle id="4361" depart="7.70">
        <route edges="e44_n e44_ce"/>
    </vehicle>
    <vehicle id="4388" depart="7.75">
        <route edges="e35_side_s e35_main_ce"/>
    </vehicle>
    <vehicle id="4406" depart="7.78">
        <route edges="e12_w e12_cs"/>
    </vehicle>
    <vehicle id="4444" depart="7.84">
        <route edges="e35_side_s e35_main_cw"/>
    </vehicle>
    <vehicle id="4460" depart="7.87">
        <route edges="e23_n e23_cs"/>
    </vehicle>
    <vehicle id="4486" depart="7.92">
        <route edges="e33_side_n e33_side_cs"/>
    </vehicle>
    <vehicle id="4527" depart="7.99">
        <route edges="e35_side_s e35_side_cn"/>
    </vehicle>
    <vehicle id="4577" depart="8.08">
        <route edges="e45_n e45_cw"/>
    </vehicle>
    <vehicle id="4602" depart="8.12">
        <route edges="e33_side_n e33_side_cs"/>
    </vehicle>
    <vehicle id="4617" depart="8.15">
        <route edges="e45_s e45_cw"/>
    </vehicle>
    <vehicle id="4640" depart="8.19">
        <route edges="e33_side_n e33_main_ce"/>
    </vehicle>
    <vehicle id="4666" depart="8.24">
        <route edges="e14_e e14_cw"/>
    </vehicle>
    <vehicle id="4687" depart="8.27">
        <route edges="e15_ne e15_cnw"/>
    </vehicle>
    <vehicle id="4704" depart="8.30">
        <route edges="e21_n e21_cw"/>
    </vehicle>
    <vehicle id="4736" depart="8.36">
        <route edges="e31_side_s e31_main_ce"/>
    </vehicle>
    <vehicle id="4798" depart="8.47">
        <route edges="e22_w e22_cn"/>
    </vehicle>
    <vehicle id="4930" depart="8.70">
        <route edges="e44_w e44_ce"/>
    </vehicle>
    <vehicle id="5029" depart="8.88">
        <route edges="e25_n e25_cs e25_cs.35"/>
    </vehicle>
    <vehicle id="5050" depart="8.91">
        <route edges="e23_e e23_cw"/>
    </vehicle>
    <vehicle id="5069" depart="8.95">
        <route edges="e32_side_n e32_main_ce"/>
    </vehicle>
    <vehicle id="5089" depart="8.98">
        <route edges="e22_s e22_cw"/>
    </vehicle>
    <vehicle id="5093" depart="8.99">
        <route edges="e43_s e43_ce"/>
    </vehicle>
    <vehicle id="5100" depart="9.00">
        <route edges="e43_e e43_cw"/>
    </vehicle>
    <vehicle id="5104" depart="9.01">
        <route edges="e33_main_e e33_main_cw"/>
    </vehicle>
    <vehicle id="5144" depart="9.08">
        <route edges="e25_n e25_ce"/>
    </vehicle>
    <vehicle id="5196" depart="9.17">
        <route edges="e15_ne e15_cs"/>
    </vehicle>
    <vehicle id="5253" depart="9.27">
        <route edges="e41_e e41_cs"/>
    </vehicle>
    <vehicle id="5304" depart="9.36">
        <route edges="e14_s e14_cw"/>
    </vehicle>
    <vehicle id="5422" depart="9.57">
        <route edges="e41_n e41_cw"/>
    </vehicle>
    <vehicle id="5435" depart="9.59">
        <route edges="e13_s e13_cw"/>
    </vehicle>
    <vehicle id="5502" depart="9.71">
        <route edges="e22_e e22_cs"/>
    </vehicle>
    <vehicle id="5546" depart="9.79">
        <route edges="e23_e e23_cw"/>
    </vehicle>
    <vehicle id="5559" depart="9.81">
        <route edges="e33_side_s e33_main_cw"/>
    </vehicle>
    <vehicle id="5568" depart="9.83">
        <route edges="e42_w2cw e42_cw2s"/>
    </vehicle>
    <vehicle id="5571" depart="9.83">
        <route edges="e44_w e44_ce"/>
    </vehicle>
    <vehicle id="5581" depart="9.85">
        <route edges="e11_e e11_cs"/>
    </vehicle>
    <vehicle id="5602" depart="9.89">
        <route edges="e22_e e22_cn"/>
    </vehicle>
    <vehicle id="5622" depart="9.92">
        <route edges="e23_e e23_cw"/>
    </vehicle>
    <vehicle id="5629" depart="9.94">
        <route edges="e41_n e41_cs"/>
    </vehicle>
    <vehicle id="5643" depart="9.96">
        <route edges="e34_side_s e34_main_ce"/>
    </vehicle>
    <vehicle id="5657" depart="9.99">
        <route edges="e32_side_n e32_side_cs"/>
    </vehicle>
    <vehicle id="5677" depart="10.02">
        <route edges="e41_n e41_ce"/>
    </vehicle>
    <vehicle id="5682" depart="10.03">
        <route edges="e14_w e14_cs"/>
    </vehicle>
    <vehicle id="5683" depart="10.03">
        <route edges="e41_n e41_cs"/>
    </vehicle>
    <vehicle id="5687" depart="10.04">
        <route edges="e41_s e41_cn"/>
    </vehicle>
    <vehicle id="5691" depart="10.05">
        <route edges="e23_n e23_cs"/>
    </vehicle>
    <vehicle id="5708" depart="10.08">
        <route edges="e34_main_w e34_side_cn"/>
    </vehicle>
    <vehicle id="5716" depart="10.09">
        <route edges="e14_w e14_cs"/>
    </vehicle>
    <vehicle id="5727" depart="10.11">
        <route edges="e25_w e25_w.89 e25_cs e25_cs.35"/>
    </vehicle>
    <vehicle id="5737" depart="10.13">
        <route edges="e41_w e41_cs"/>
    </vehicle>
    <vehicle id="5756" depart="10.16">
        <route edges="e21_w e21_ce"/>
    </vehicle>
    <vehicle id="5822" depart="10.28">
        <route edges="e33_main_w e33_side_cs"/>
    </vehicle>
    <vehicle id="5842" depart="10.31">
        <route edges="e15_s e15_cne"/>
    </vehicle>
    <vehicle id="5890" depart="10.40">
        <route edges="e41_e e41_cw"/>
    </vehicle>
    <vehicle id="5912" depart="10.44">
        <route edges="e41_w e41_ce"/>
    </vehicle>
    <vehicle id="5956" depart="10.51">
        <route edges="e42_e2ce e42_ce2cw e42_cw2s"/>
    </vehicle>
    <vehicle id="6033" depart="10.65">
        <route edges="e15_nw e15_cne"/>
    </vehicle>
    <vehicle id="6069" depart="10.71">
        <route edges="e44_n e44_cs"/>
    </vehicle>
    <vehicle id="6073" depart="10.72">
        <route edges="e23_n e23_cw"/>
    </vehicle>
    <vehicle id="6121" depart="10.80">
        <route edges="e24_w e24_cs"/>
    </vehicle>
    <vehicle id="6124" depart="10.81">
        <route edges="e33_main_e e33_side_cn"/>
    </vehicle>
    <vehicle id="6237" depart="11.01">
        <route edges="e45_n e45_ce"/>
    </vehicle>
    <vehicle id="6263" depart="11.05">
        <route edges="e34_side_n e34_side_cs"/>
    </vehicle>
    <vehicle id="6276" depart="11.08">
        <route edges="e41_w e41_cn"/>
    </vehicle>
    <vehicle id="6283" depart="11.09">
        <route edges="e13_s e13_cw"/>
    </vehicle>
    <vehicle id="6296" depart="11.11">
        <route edges="e15_ne e15_cnw"/>
    </vehicle>
    <vehicle id="6323" depart="11.16">
        <route edges="e25_w e25_w.89 e25_cs e25_cs.35"/>
    </vehicle>
    <vehicle id="6360" depart="11.23">
        <route edges="e32_main_w e32_side_cn"/>
    </vehicle>
    <vehicle id="6373" depart="11.25">
        <route edges="e41_n e41_cs"/>
    </vehicle>
    <vehicle id="6379" depart="11.26">
        <route edges="e22_n e22_cw"/>
    </vehicle>
    <vehicle id="6437" depart="11.36">
        <route edges="e23_n e23_ce"/>
    </vehicle>
    <vehicle id="6480" depart="11.44">
        <route edges="e24_s e24_ce"/>
    </vehicle>
    <vehicle id="6577" depart="11.61">
        <route edges="e41_n e41_cw"/>
    </vehicle>
    <vehicle id="6595" depart="11.64">
        <route edges="e43_w e43_ce"/>
    </vehicle>
    <vehicle id="6632" depart="11.71">
        <route edges="e12_s e12_cw"/>
    </vehicle>
    <vehicle id="6646" depart="11.73">
        <route edges="e22_e e22_cn"/>
    </vehicle>
    <vehicle id="6731" depart="11.88">
        <route edges="e42_e2ce e42_ce2cw e42_cw2s"/>
    </vehicle>
    <vehicle id="6773" depart="11.96">
        <route edges="e31_main_w e31_main_ce"/>
    </vehicle>
    <vehicle id="6837" depart="12.07">
        <route edges="e41_w e41_cn"/>
    </vehicle>
    <vehicle id="6841" depart="12.08">
        <route edges="e45_s e45_cw"/>
    </vehicle>
    <vehicle id="6888" depart="12.16">
        <route edges="e34_main_w e34_side_cs"/>
    </vehicle>
    <vehicle id="6896" depart="12.17">
        <route edges="e13_w e13_cs"/>
    </vehicle>
    <vehicle id="6929" depart="12.23">
        <route edges="e31_main_w e31_side_cs"/>
    </vehicle>
    <vehicle id="6972" depart="12.31">
        <route edges="e41_n e41_cs"/>
    </vehicle>
    <vehicle id="6988" depart="12.33">
        <route edges="e23_s e23_cn"/>
    </vehicle>
    <vehicle id="7027" depart="12.40">
        <route edges="e15_nw e15_cs"/>
    </vehicle>
    <vehicle id="7030" depart="12.41">
        <route edges="e32_main_w e32_main_ce"/>
    </vehicle>
    <vehicle id="7031" depart="12.41">
        <route edges="e42_w2cw e42_cw2ce e42_ce2e"/>
    </vehicle>
    <vehicle id="7032" depart="12.41">
        <route edges="e32_main_w e32_side_cn"/>
    </vehicle>
    <vehicle id="7041" depart="12.43">
        <route edges="e25_w e25_w.89 e25_cs e25_cs.35"/>
    </vehicle>
    <vehicle id="7079" depart="12.50">
        <route edges="e34_main_w e34_side_cn"/>
    </vehicle>
    <vehicle id="7090" depart="12.51">
        <route edges="e22_s e22_cn"/>
    </vehicle>
    <vehicle id="7139" depart="12.60">
        <route edges="e43_n e43_cs"/>
    </vehicle>
    <vehicle id="7173" depart="12.66">
        <route edges="e35_main_w e35_main_ce"/>
    </vehicle>
    <vehicle id="7210" depart="12.73">
        <route edges="e11_e e11_cs"/>
    </vehicle>
    <vehicle id="7223" depart="12.75">
        <route edges="e22_s e22_cn"/>
    </vehicle>
    <vehicle id="7235" depart="12.77">
        <route edges="e31_side_n e31_side_cs"/>
    </vehicle>
    <vehicle id="7282" depart="12.85">
        <route edges="e24_e e24_cs"/>
    </vehicle>
    <vehicle id="7304" depart="12.89">
        <route edges="e33_main_e e33_side_cn"/>
    </vehicle>
    <vehicle id="7322" depart="12.92">
        <route edges="e22_e e22_cn"/>
    </vehicle>
    <vehicle id="7422" depart="13.10">
        <route edges="e41_w e41_cs"/>
    </vehicle>
    <vehicle id="7426" depart="13.11">
        <route edges="e32_main_w e32_side_cn"/>
    </vehicle>
    <vehicle id="7439" depart="13.13">
        <route edges="e42_w2cw e42_cw2ce e42_ce2n"/>
    </vehicle>
    <vehicle id="7448" depart="13.15">
        <route edges="e42_n2ce e42_ce2e"/>
    </vehicle>
    <vehicle id="7561" depart="13.35">
        <route edges="e24_s e24_cn"/>
    </vehicle>
    <vehicle id="7651" depart="13.50">
        <route edges="e25_n e25_ce"/>
    </vehicle>
    <vehicle id="7669" depart="13.54">
        <route edges="e43_e e43_cn"/>
    </vehicle>
    <vehicle id="7696" depart="13.58">
        <route edges="e21_s e21_cw"/>
    </vehicle>
    <vehicle id="7718" depart="13.62">
        <route edges="e45_n e45_ce"/>
    </vehicle>
    <vehicle id="7741" depart="13.66">
        <route edges="e42_n2ce e42_ce2cw e42_cw2w"/>
    </vehicle>
    <vehicle id="7746" depart="13.67">
        <route edges="e31_side_s e31_main_ce"/>
    </vehicle>
    <vehicle id="7749" depart="13.68">
        <route edges="e32_side_s e32_main_cw"/>
    </vehicle>
    <vehicle id="7759" depart="13.70">
        <route edges="e31_side_n e31_main_cw"/>
    </vehicle>
    <vehicle id="7768" depart="13.71">
        <route edges="e22_n e22_cs"/>
    </vehicle>
    <vehicle id="7770" depart="13.71">
        <route edges="e42_e2ce e42_ce2cw e42_cw2w"/>
    </vehicle>
    <vehicle id="7826" depart="13.81">
        <route edges="e23_w e23_ce"/>
    </vehicle>
    <vehicle id="7859" depart="13.87">
        <route edges="e41_n e41_cw"/>
    </vehicle>
    <vehicle id="7877" depart="13.90">
        <route edges="e22_n e22_cs"/>
    </vehicle>
    <vehicle id="7897" depart="13.94">
        <route edges="e41_e e41_cs"/>
    </vehicle>
    <vehicle id="7911" depart="13.96">
        <route edges="e42_n2ce e42_ce2e"/>
    </vehicle>
    <vehicle id="7939" depart="14.01">
        <route edges="e44_n e44_cs"/>
    </vehicle>
    <vehicle id="7946" depart="14.03">
        <route edges="e45_s e45_cn"/>
    </vehicle>
    <vehicle id="7950" depart="14.03">
        <route edges="e42_e2ce e42_ce2cw e42_cw2s"/>
    </vehicle>
    <vehicle id="8001" depart="14.12">
        <route edges="e31_side_s e31_main_cw"/>
    </vehicle>
    <vehicle id="8022" depart="14.16">
        <route edges="e22_n e22_cs"/>
    </vehicle>
    <vehicle id="8057" depart="14.22">
        <route edges="e12_w e12_cs"/>
    </vehicle>
    <vehicle id="8060" depart="14.23">
        <route edges="e41_n e41_cw"/>
    </vehicle>
    <vehicle id="8091" depart="14.28">
        <route edges="e34_side_s e34_side_cn"/>
    </vehicle>
    <vehicle id="8103" depart="14.30">
        <route edges="e31_side_s e31_side_cn"/>
    </vehicle>
    <vehicle id="8143" depart="14.37">
        <route edges="e41_n e41_ce"/>
    </vehicle>
    <vehicle id="8245" depart="14.55">
        <route edges="e41_n e41_ce"/>
    </vehicle>
    <vehicle id="8248" depart="14.56">
        <route edges="e32_main_e e32_side_cn"/>
    </vehicle>
    <vehicle id="8272" depart="14.60">
        <route edges="e25_s e25_cn"/>
    </vehicle>
    <vehicle id="8284" depart="14.62">
        <route edges="e43_n e43_cw"/>
    </vehicle>
    <vehicle id="8398" depart="14.82">
        <route edges="e34_main_e e34_side_cn"/>
    </vehicle>
    <vehicle id="8426" depart="14.87">
        <route edges="e12_w e12_ce"/>
    </vehicle>
    <vehicle id="8429" depart="14.88">
        <route edges="e24_s e24_cw"/>
    </vehicle>
    <vehicle id="8522" depart="15.04">
        <route edges="e11_e e11_cs"/>
    </vehicle>
    <vehicle id="8564" depart="15.12">
        <route edges="e25_n e25_ce"/>
    </vehicle>
    <vehicle id="8570" depart="15.13">
        <route edges="e14_e e14_cw"/>
    </vehicle>
    <vehicle id="8576" depart="15.14">