<?xml version="1.0" encoding="UTF-8"?>

<!-- generated on 2025-12-20 00:57:52.983277 by Eclipse SUMO randomTrips.py v1.20.0
<configuration>
    <net-file value="/Users/wagnertamas/Documents/Munka/cikkek/AI_agens_konyvtar/finish/mega_catalogue_v2.net.xml"/>
    <output-trip-file value="/Users/wagnertamas/Documents/Munka/cikkek/AI_agens_konyvtar/finish/random_traffic.rou.xml"/>
    <fringe-factor value="10"/>
    <min-distance value="50.0"/>
    <period value="0.1"/>
</configuration>
-->

<!-- generated on 2025-12-20T00:57:52.733540+01:00 by Eclipse SUMO duarouter 1.25.0
<duarouterConfiguration xmlns:xsi="http://www.w3.org/2001/XMLSchema-instance" xsi:noNamespaceSchemaLocation="http://sumo.dlr.de/xsd/duarouterConfiguration.xsd">

    <input>
        <net-file value="/Users/wagnertamas/Documents/Munka/cikkek/AI_agens_konyvtar/finish/mega_catalogue_v2.net.xml"/>
        <route-files value="/Users/wagnertamas/Documents/Munka/cikkek/AI_agens_konyvtar/finish/random_traffic.rou.xml"/>
    </input>

    <output>
        <output-file value="routes.rou.xml"/>
        <alternatives-output value="NUL"/>
    </output>

    <time>
        <begin value="0"/>
        <end value="3600.0"/>
    </time>

    <report>
        <no-warnings value="true"/>
        <ignore-errors value="true"/>
        <no-step-log value="true"/>
    </report>

</duarouterConfiguration>
-->

<routes xmlns:xsi="http://www.w3.org/2001/XMLSchema-instance" xsi:noNamespaceSchemaLocation="http://sumo.dlr.de/xsd/routes_file.xsd">
    <vehicle id="56" depart="5.60">
        <route edges="e43_w e43_ce"/>
    </vehicle>
    <vehicle id="78" depart="7.80">
        <route edges="e21_n e21_ce"/>
    </vehicle>
    <vehicle id="88" depart="8.80">
        <route edges="e25_cs e25_cs.35"/>
    </vehicle>
    <vehicle id="106" depart="10.60">
        <route edges="e45_e e45_cw"/>
    </vehicle>
    <vehicle id="118" depart="11.80">
        <route edges="e33_main_e e33_main_cw"/>
    </vehicle>
    <vehicle id="228" depart="22.80">
        <route edges="e22_e e22_cw"/>
    </vehicle>
    <vehicle id="242" depart="24.20">
        <route edges="e21_n e21_ce"/>
    </vehicle>
    <vehicle id="279" depart="27.90">
        <route edges="e42_s2cw e42_cw2ce e42_ce2e"/>
    </vehicle>
    <vehicle id="321" depart="32.10">
        <route edges="e25_w e25_w.89 e25_ce"/>
    </vehicle>
    <vehicle id="334" depart="33.40">
        <route edges="e33_side_n e33_main_cw"/>
    </vehicle>
    <vehicle id="358" depart="35.80">
        <route edges="e45_e e45_cw"/>
    </vehicle>
    <vehicle id="365" depart="36.50">
        <route edges="e23_s e23_ce"/>
    </vehicle>
    <vehicle id="396" depart="39.60">
        <route edges="e22_n e22_cs"/>
    </vehicle>
    <vehicle id="400" depart="40.00">
        <route edges="e32_main_w e32_main_ce"/>
    </vehicle>
    <vehicle id="405" depart="40.50">
        <route edges="e35_side_s e35_main_ce"/>
    </vehicle>
    <vehicle id="435" depart="43.50">
        <route edges="e21_w e21_cs"/>
    </vehicle>
    <vehicle id="452" depart="45.20">
        <route edges="e33_side_s e33_main_cw"/>
    </vehicle>
    <vehicle id="542" depart="54.20">
        <route edges="e32_side_s e32_main_cw"/>
    </vehicle>
    <vehicle id="587" depart="58.70">
        <route edges="e32_side_s e32_side_cn"/>
    </vehicle>
    <vehicle id="596" depart="59.60">
        <route edges="e23_n e23_ce"/>
    </vehicle>
    <vehicle id="611" depart="61.10">
        <route edges="e22_w e22_ce"/>
    </vehicle>
    <vehicle id="635" depart="63.50">
        <route edges="e43_w e43_ce"/>
    </vehicle>
    <vehicle id="646" depart="64.60">
        <route edges="e23_w e23_cs"/>
    </vehicle>
    <vehicle id="647" depart="64.70">
        <route edges="e15_nw e15_cs"/>
    </vehicle>
    <vehicle id="665" depart="66.50">
        <route edges="e45_e e45_cs"/>
    </vehicle>
    <vehicle id="702" depart="70.20">
        <route edges="e31_side_s e31_main_cw"/>
    </vehicle>
    <vehicle id="739" depart="73.90">
        <route edges="e45_s e45_ce"/>
    </vehicle>
    <vehicle id="802" depart="80.20">
        <route edges="e12_w e12_ce"/>
    </vehicle>
    <vehicle id="803" depart="80.30">
        <route edges="e25_n e25_cw"/>
    </vehicle>
    <vehicle id="817" depart="81.70">
        <route edges="e31_side_n e31_main_ce"/>
    </vehicle>
    <vehicle id="839" depart="83.90">
        <route edges="e25_w e25_w.89 e25_cn"/>
    </vehicle>
    <vehicle id="852" depart="85.20">
        <route edges="e41_s e41_cn"/>
    </vehicle>
    <vehicle id="855" depart="85.50">
        <route edges="e33_side_n e33_main_cw"/>
    </vehicle>
    <vehicle id="869" depart="86.90">
        <route edges="e34_main_e e34_side_cs"/>
    </vehicle>
    <vehicle id="873" depart="87.30">
        <route edges="e22_s e22_cn"/>
    </vehicle>
    <vehicle id="875" depart="87.50">
        <route edges="e23_e e23_cn"/>
    </vehicle>
    <vehicle id="881" depart="88.10">
        <route edges="e22_s e22_cn"/>
    </vehicle>
    <vehicle id="934" depart="93.40">
        <route edges="e14_e e14_cs"/>
    </vehicle>
    <vehicle id="963" depart="96.30">
        <route edges="e43_e e43_cw"/>
    </vehicle>
    <vehicle id="992" depart="99.20">
        <route edges="e43_n e43_cw"/>
    </vehicle>
    <vehicle id="1022" depart="102.20">
        <route edges="e31_side_n e31_main_ce"/>
    </vehicle>
    <vehicle id="1070" depart="107.00">
        <route edges="e43_e e43_cn"/>
    </vehicle>
    <vehicle id="1092" depart="109.20">
        <route edges="e34_side_n e34_main_ce"/>
    </vehicle>
    <vehicle id="1120" depart="112.00">
        <route edges="e23_n e23_ce"/>
    </vehicle>
    <vehicle id="1121" depart="112.10">
        <route edges="e42_e2ce e42_ce2cw e42_cw2w"/>
    </vehicle>
    <vehicle id="1153" depart="115.30">
        <route edges="e32_side_s e32_side_cn"/>
    </vehicle>
    <vehicle id="1177" depart="117.70">
        <route edges="e41_e e41_cw"/>
    </vehicle>
    <vehicle id="1183" depart="118.30">
        <route edges="e33_main_e e33_main_cw"/>
    </vehicle>
    <vehicle id="1188" depart="118.80">
        <route edges="e13_e e13_cw"/>
    </vehicle>
    <vehicle id="1201" depart="120.10">
        <route edges="e31_main_w e31_main_ce"/>
    </vehicle>
    <vehicle id="1291" depart="129.10">
        <route edges="e31_side_n e31_main_cw"/>
    </vehicle>
    <vehicle id="1297" depart="129.70">
        <route edges="e45_s e45_cw"/>
    </vehicle>
    <vehicle id="1315" depart="131.50">
        <route edges="e35_main_e e35_side_cn"/>
    </vehicle>
    <vehicle id="1371" depart="137.10">
        <route edges="e13_s e13_cw"/>
    </vehicle>
    <vehicle id="1375" depart="137.50">
        <route edges="e22_e e22_cw"/>
    </vehicle>
    <vehicle id="1410" depart="141.00">
        <route edges="e15_ne e15_cs"/>
    </vehicle>
    <vehicle id="1419" depart="141.90">
        <route edges="e41_w e41_cs"/>
    </vehicle>
    <vehicle id="1439" depart="143.90">
        <route edges="e32_side_n e32_main_cw"/>
    </vehicle>
    <vehicle id="1451" depart="145.10">
        <route edges="e42_s2cw e42_cw2w"/>
    </vehicle>
    <vehicle id="1484" depart="148.40">
        <route edges="e22_s e22_cw"/>
    </vehicle>
    <vehicle id="1489" depart="148.90">
        <route edges="e33_main_e e33_main_cw"/>
    </vehicle>
    <vehicle id="1495" depart="149.50">
        <route edges="e35_main_w e35_side_cn"/>
    </vehicle>
    <vehicle id="1510" depart="151.00">
        <route edges="e21_n e21_cw"/>
    </vehicle>
    <vehicle id="1525" depart="152.50">
        <route edges="e45_s e45_cn"/>
    </vehicle>
    <vehicle id="1538" depart="153.80">
        <route edges="e44_w e44_ce"/>
    </vehicle>
    <vehicle id="1557" depart="155.70">
        <route edges="e15_nw e15_cs"/>
    </vehicle>
    <vehicle id="1578" depart="157.80">
        <route edges="e34_main_e e34_side_cn"/>
    </vehicle>
    <vehicle id="1602" depart="160.20">
        <route edges="e34_main_w e34_side_cn"/>
    </vehicle>
    <vehicle id="1605" depart="160.50">
        <route edges="e24_w e24_ce"/>
    </vehicle>
    <vehicle id="1674" depart="167.40">
        <route edges="e13_w e13_ce"/>
    </vehicle>
    <vehicle id="1675" depart="167.50">
        <route edges="e15_s e15_cnw"/>
    </vehicle>
    <vehicle id="1686" depart="168.60">
        <route edges="e21_w e21_cn"/>
    </vehicle>
    <vehicle id="1713" depart="171.30">
        <route edges="e22_e e22_cw"/>
    </vehicle>
    <vehicle id="1763" depart="176.30">
        <route edges="e31_main_e e31_main_cw"/>
    </vehicle>
    <vehicle id="1828" depart="182.80">
        <route edges="e23_n e23_cs"/>
    </vehicle>
    <vehicle id="1834" depart="183.40">
        <route edges="e33_main_w e33_side_cn"/>
    </vehicle>
    <vehicle id="1884" depart="188.40">
        <route edges="e42_w2cw e42_cw2s"/>
    </vehicle>
    <vehicle id="1912" depart="191.20">
        <route edges="e32_main_w e32_main_ce"/>
    </vehicle>
    <vehicle id="1930" depart="193.00">
        <route edges="e25_w e25_w.89 e25_cn"/>
    </vehicle>
    <vehicle id="1943" depart="194.30">
        <route edges="e14_s e14_cw"/>
    </vehicle>
    <vehicle id="1985" depart="198.50">
        <route edges="e13_s e13_cw"/>
    </vehicle>
    <vehicle id="1992" depart="199.20">
        <route edges="e34_main_e e34_side_cn"/>
    </vehicle>
    <vehicle id="1993" depart="199.30">
        <route edges="e23_e e23_cs"/>
    </vehicle>
    <vehicle id="2042" depart="204.20">
        <route edges="e41_n e41_ce"/>
    </vehicle>
    <vehicle id="2063" depart="206.30">
        <route edges="e34_side_n e34_main_cw"/>
    </vehicle>
    <vehicle id="2068" depart="206.80">
        <route edges="e43_s e43_ce"/>
    </vehicle>
    <vehicle id="2141" depart="214.10">
        <route edges="e33_main_e e33_side_cn"/>
    </vehicle>
    <vehicle id="2147" depart="214.70">
        <route edges="e22_e e22_cs"/>
    </vehicle>
    <vehicle id="2150" depart="215.00">
        <route edges="e25_w E0"/>
    </vehicle>
    <vehicle id="2152" depart="215.20">
        <route edges="e25_w E0"/>
    </vehicle>
    <vehicle id="2155" depart="215.50">
        <route edges="e24_e e24_cs"/>
    </vehicle>
    <vehicle id="2158" depart="215.80">
        <route edges="e24_n e24_ce"/>
    </vehicle>
    <vehicle id="2166" depart="216.60">
        <route edges="e33_side_s e33_main_cw"/>
    </vehicle>
    <vehicle id="2181" depart="218.10">
        <route edges="e42_s2cw e42_cw2ce e42_ce2e"/>
    </vehicle>
    <vehicle id="2209" depart="220.90">
        <route edges="e41_e e41_cw"/>
    </vehicle>
    <vehicle id="2215" depart="221.50">
        <route edges="e15_nw e15_cne"/>
    </vehicle>
    <vehicle id="2261" depart="226.10">
        <route edges="e23_e e23_cw"/>
    </vehicle>
    <vehicle id="2357" depart="235.70">
        <route edges="e33_main_w e33_side_cn"/>
    </vehicle>
    <vehicle id="2365" depart="236.50">
        <route edges="e45_w e45_cs"/>
    </vehicle>
    <vehicle id="2372" depart="237.20">
        <route edges="e24_w e24_cs"/>
    </vehicle>
    <vehicle id="2457" depart="245.70">
        <route edges="e31_side_s e31_side_cn"/>
    </vehicle>
    <vehicle id="2499" depart="249.90">
        <route edges="e35_side_s e35_main_ce"/>
    </vehicle>
    <vehicle id="2505" depart="250.50">
        <route edges="e41_s e41_cn"/>
    </vehicle>
    <vehicle id="2545" depart="254.50">
        <route edges="e25_w e25_w.89 e25_cn"/>
    </vehicle>
    <vehicle id="2596" depart="259.60">
        <route edges="e24_n e24_ce"/>
    </vehicle>
    <vehicle id="2671" depart="267.10">
        <route edges="e35_side_s e35_side_cn"/>
    </vehicle>
    <vehicle id="2756" depart="275.60">
        <route edges="e41_w e41_ce"/>
    </vehicle>
    <vehicle id="2788" depart="278.80">
        <route edges="e41_w e41_ce"/>
    </vehicle>
    <vehicle id="2811" depart="281.10">
        <route edges="e33_side_s e33_main_cw"/>
    </vehicle>
    <vehicle id="2842" depart="284.20">
        <route edges="e41_w e41_cs"/>
    </vehicle>
    <vehicle id="2859" depart="285.90">
        <route edges="e31_main_e e31_side_cn"/>
    </vehicle>
    <vehicle id="2891" depart="289.10">
        <route edges="e34_side_s e34_main_cw"/>
    </vehicle>
    <vehicle id="2897" depart="289.70">
        <route edges="e23_s e23_cw"/>
    </vehicle>
    <vehicle id="2940" depart="294.00">
        <route edges="e35_main_e e35_side_cs"/>
    </vehicle>
    <vehicle id="2993" depart="299.30">
        <route edges="e41_n e41_ce"/>
    </vehicle>
    <vehicle id="3049" depart="304.90">
        <route edges="e12_e e12_cs"/>
    </vehicle>
    <vehicle id="3068" depart="306.80">
        <route edges="e34_side_n e34_main_ce"/>
    </vehicle>
    <vehicle id="3079" depart="307.90">
        <route edges="e23_w e23_cs"/>
    </vehicle>
    <vehicle id="3089" depart="308.90">
        <route edges="e24_e e24_cn"/>
    </vehicle>
    <vehicle id="3138" depart="313.80">
        <route edges="e43_e e43_cs"/>
    </vehicle>
    <vehicle id="3181" depart="318.10">
        <route edges="e42_e2ce e42_ce2n"/>
    </vehicle>
    <vehicle id="3206" depart="320.60">
        <route edges="e24_s e24_cw"/>
    </vehicle>
    <vehicle id="3225" depart="322.50">
        <route edges="e34_side_s e34_side_cn"/>
    </vehicle>
    <vehicle id="3226" depart="322.60">
        <route edges="e35_main_w e35_main_ce"/>
    </vehicle>
    <vehicle id="3247" depart="324.70">
        <route edges="e22_e e22_cw"/>
    </vehicle>
    <vehicle id="3282" depart="328.20">
        <route edges="e24_e e24_cn"/>
    </vehicle>
    <vehicle id="3321" depart="332.10">
        <route edges="e15_nw e15_cne"/>
    </vehicle>
    <vehicle id="3351" depart="335.10">
        <route edges="e33_main_e e33_main_cw"/>
    </vehicle>
    <vehicle id="3382" depart="338.20">
        <route edges="e21_n e21_cw"/>
    </vehicle>
    <vehicle id="3383" depart="338.30">
        <route edges="e23_n e23_cs"/>
    </vehicle>
    <vehicle id="3390" depart="339.00">
        <route edges="e13_w e13_ce"/>
    </vehicle>
    <vehicle id="3409" depart="340.90">
        <route edges="e24_w e24_cs"/>
    </vehicle>
    <vehicle id="3460" depart="346.00">
        <route edges="e25_w e25_w.89 e25_cn"/>
    </vehicle>
    <vehicle id="3481" depart="348.10">
        <route edges="e43_s e43_cn"/>
    </vehicle>
    <vehicle id="3490" depart="349.00">
        <route edges="e25_s e25_cn"/>
    </vehicle>
    <vehicle id="3570" depart="357.00">
        <route edges="e42_e2ce e42_ce2n"/>
    </vehicle>
    <vehicle id="3613" depart="361.30">
        <route edges="e33_main_e e33_side_cn"/>
    </vehicle>
    <vehicle id="3652" depart="365.20">
        <route edges="e42_n2ce e42_ce2cw e42_cw2w"/>
    </vehicle>
    <vehicle id="3656" depart="365.60">
        <route edges="e34_main_w e34_side_cs"/>
    </vehicle>
    <vehicle id="3703" depart="370.30">
        <route edges="e23_e e23_cw"/>
    </vehicle>
    <vehicle id="3726" depart="372.60">
        <route edges="e15_s e15_cnw"/>
    </vehicle>
    <vehicle id="3740" depart="374.00">
        <route edges="e41_s e41_ce"/>
    </vehicle>
    <vehicle id="3756" depart="375.60">
        <route edges="e33_side_s e33_main_ce"/>
    </vehicle>
    <vehicle id="3798" depart="379.80">
        <route edges="e35_main_e e35_main_cw"/>
    </vehicle>
    <vehicle id="3828" depart="382.80">
        <route edges="e41_n e41_ce"/>
    </vehicle>
    <vehicle id="3853" depart="385.30">
        <route edges="e34_side_s e34_side_cn"/>
    </vehicle>
    <vehicle id="3903" depart="390.30">
        <route edges="e25_s e25_cn"/>
    </vehicle>
    <vehicle id="3918" depart="391.80">
        <route edges="e31_side_n e31_main_ce"/>
    </vehicle>
    <vehicle id="3971" depart="397.10">
        <route edges="e23_w e23_ce"/>
    </vehicle>
    <vehicle id="3973" depart="397.30">
        <route edges="e35_main_e e35_main_cw"/>
    </vehicle>
    <vehicle id="4011" depart="401.10">
        <route edges="e33_main_e e33_side_cs"/>
    </vehicle>
    <vehicle id="4142" depart="414.20">
        <route edges="e31_main_e e31_side_cs"/>
    </vehicle>
    <vehicle id="4176" depart="417.60">
        <route edges="e35_main_w e35_main_ce"/>
    </vehicle>
    <vehicle id="4213" depart="421.30">
        <route edges="e15_s e15_cnw"/>
    </vehicle>
    <vehicle id="4224" depart="422.40">
        <route edges="e13_w e13_cs"/>
    </vehicle>
    <vehicle id="4249" depart="424.90">
        <route edges="e22_w e22_ce"/>
    </vehicle>
    <vehicle id="4324" depart="432.40">
        <route edges="e15_nw e15_cne"/>
    </vehicle>
    <vehicle id="4330" depart="433.00">
        <route edges="e12_w e12_cs"/>
    </vehicle>
    <vehicle id="4358" depart="435.80">
        <route edges="e13_w e13_ce"/>
    </vehicle>
    <vehicle id="4361" depart="436.10">
        <route edges="e44_n e44_ce"/>
    </vehicle>
    <vehicle id="4388" depart="438.80">
        <route edges="e35_side_s e35_main_ce"/>
    </vehicle>
    <vehicle id="4406" depart="440.60">
        <route edges="e12_w e12_cs"/>
    </vehicle>
    <vehicle id="4444" depart="444.40">
        <route edges="e35_side_s e35_main_cw"/>
    </vehicle>
    <vehicle id="4460" depart="446.00">
        <route edges="e23_n e23_cs"/>
    </vehicle>
    <vehicle id="4486" depart="448.60">
        <route edges="e33_side_n e33_side_cs"/>
    </vehicle>
    <vehicle id="4527" depart="452.70">
        <route edges="e35_side_s e35_side_cn"/>
    </vehicle>
    <vehicle id="4577" depart="457.70">
        <route edges="e45_n e45_cw"/>
    </vehicle>
    <vehicle id="4602" depart="460.20">
        <route edges="e33_side_n e33_side_cs"/>
    </vehicle>
    <vehicle id="4617" depart="461.70">
        <route edges="e45_s e45_cw"/>
    </vehicle>
    <vehicle id="4640" depart="464.00">
        <route edges="e33_side_n e33_main_ce"/>
    </vehicle>
    <vehicle id="4666" depart="466.60">
        <route edges="e14_e e14_cw"/>
    </vehicle>
    <vehicle id="4687" depart="468.70">
        <route edges="e15_ne e15_cnw"/>
    </vehicle>
    <vehicle id="4704" depart="470.40">
        <route edges="e21_n e21_cw"/>
    </vehicle>
    <vehicle id="4736" depart="473.60">
        <route edges="e31_side_s e31_main_ce"/>
    </vehicle>
    <vehicle id="4798" depart="479.80">
        <route edges="e22_w e22_cn"/>
    </vehicle>
    <vehicle id="4930" depart="493.00">
        <route edges="e44_w e44_ce"/>
    </vehicle>
    <vehicle id="5029" depart="502.90">
        <route edges="e25_n e25_cs e25_cs.35"/>
    </vehicle>
    <vehicle id="5050" depart="505.00">
        <route edges="e23_e e23_cw"/>
    </vehicle>
    <vehicle id="5069" depart="506.90">
        <route edges="e32_side_n e32_main_ce"/>
    </vehicle>
    <vehicle id="5089" depart="508.90">
        <route edges="e22_s e22_cw"/>
    </vehicle>
    <vehicle id="5093" depart="509.30">
        <route edges="e43_s e43_ce"/>
    </vehicle>
    <vehicle id="5100" depart="510.00">
        <route edges="e43_e e43_cw"/>
    </vehicle>
    <vehicle id="5104" depart="510.40">
        <route edges="e33_main_e e33_main_cw"/>
    </vehicle>
    <vehicle id="5144" depart="514.40">
        <route edges="e25_n e25_ce"/>
    </vehicle>
    <vehicle id="5196" depart="519.60">
        <route edges="e15_ne e15_cs"/>
    </vehicle>
    <vehicle id="5253" depart="525.30">
        <route edges="e41_e e41_cs"/>
    </vehicle>
    <vehicle id="5304" depart="530.40">
        <route edges="e14_s e14_cw"/>
    </vehicle>
    <vehicle id="5422" depart="542.20">
        <route edges="e41_n e41_cw"/>
    </vehicle>
    <vehicle id="5435" depart="543.50">
        <route edges="e13_s e13_cw"/>
    </vehicle>
    <vehicle id="5502" depart="550.20">
        <route edges="e22_e e22_cs"/>
    </vehicle>
    <vehicle id="5546" depart="554.60">
        <route edges="e23_e e23_cw"/>
    </vehicle>
    <vehicle id="5559" depart="555.90">
        <route edges="e33_side_s e33_main_cw"/>
    </vehicle>
    <vehicle id="5568" depart="556.80">
        <route edges="e42_w2cw e42_cw2s"/>
    </vehicle>
    <vehicle id="5571" depart="557.10">
        <route edges="e44_w e44_ce"/>
    </vehicle>
    <vehicle id="5581" depart="558.10">
        <route edges="e11_e e11_cs"/>
    </vehicle>
    <vehicle id="5602" depart="560.20">
        <route edges="e22_e e22_cn"/>
    </vehicle>
    <vehicle id="5622" depart="562.20">
        <route edges="e23_e e23_cw"/>
    </vehicle>
    <vehicle id="5629" depart="562.90">
        <route edges="e41_n e41_cs"/>
    </vehicle>
    <vehicle id="5643" depart="564.30">
        <route edges="e34_side_s e34_main_ce"/>
    </vehicle>
    <vehicle id="5657" depart="565.70">
        <route edges="e32_side_n e32_side_cs"/>
    </vehicle>
    <vehicle id="5677" depart="567.70">
        <route edges="e41_n e41_ce"/>
    </vehicle>
    <vehicle id="5682" depart="568.20">
        <route edges="e14_w e14_cs"/>
    </vehicle>
    <vehicle id="5683" depart="568.30">
        <route edges="e41_n e41_cs"/>
    </vehicle>
    <vehicle id="5687" depart="568.70">
        <route edges="e41_s e41_cn"/>
    </vehicle>
    <vehicle id="5691" depart="569.10">
        <route edges="e23_n e23_cs"/>
    </vehicle>
    <vehicle id="5708" depart="570.80">
        <route edges="e34_main_w e34_side_cn"/>
    </vehicle>
    <vehicle id="5716" depart="571.60">
        <route edges="e14_w e14_cs"/>
    </vehicle>
    <vehicle id="5727" depart="572.70">
        <route edges="e25_w e25_w.89 e25_cs e25_cs.35"/>
    </vehicle>
    <vehicle id="5737" depart="573.70">
        <route edges="e41_w e41_cs"/>
    </vehicle>
    <vehicle id="5756" depart="575.60">
        <route edges="e21_w e21_ce"/>
    </vehicle>
    <vehicle id="5822" depart="582.20">
        <route edges="e33_main_w e33_side_cs"/>
    </vehicle>
    <vehicle id="5842" depart="584.20">
        <route edges="e15_s e15_cne"/>
    </vehicle>
    <vehicle id="5890" depart="589.00">
        <route edges="e41_e e41_cw"/>
    </vehicle>
    <vehicle id="5912" depart="591.20">
        <route edges="e41_w e41_ce"/>
    </vehicle>
    <vehicle id="5956" depart="595.60">
        <route edges="e42_e2ce e42_ce2cw e42_cw2s"/>
    </vehicle>
    <vehicle id="6033" depart="603.30">
        <route edges="e15_nw e15_cne"/>
    </vehicle>
    <vehicle id="6069" depart="606.90">
        <route edges="e44_n e44_cs"/>
    </vehicle>
    <vehicle id="6073" depart="607.30">
        <route edges="e23_n e23_cw"/>
    </vehicle>
    <vehicle id="6121" depart="612.10">
        <route edges="e24_w e24_cs"/>
    </vehicle>
    <vehicle id="6124" depart="612.40">
        <route edges="e33_main_e e33_side_cn"/>
    </vehicle>
    <vehicle id="6237" depart="623.70">
        <route edges="e45_n e45_ce"/>
    </vehicle>
    <vehicle id="6263" depart="626.30">
        <route edges="e34_side_n e34_side_cs"/>
    </vehicle>
    <vehicle id="6276" depart="627.60">
        <route edges="e41_w e41_cn"/>
    </vehicle>
    <vehicle id="6283" depart="628.30">
        <route edges="e13_s e13_cw"/>
    </vehicle>
    <vehicle id="6296" depart="629.60">
        <route edges="e15_ne e15_cnw"/>
    </vehicle>
    <vehicle id="6323" depart="632.30">
        <route edges="e25_w e25_w.89 e25_cs e25_cs.35"/>
    </vehicle>
    <vehicle id="6360" depart="636.00">
        <route edges="e32_main_w e32_side_cn"/>
    </vehicle>
    <vehicle id="6373" depart="637.30">
        <route edges="e41_n e41_cs"/>
    </vehicle>
    <vehicle id="6379" depart="637.90">
        <route edges="e22_n e22_cw"/>
    </vehicle>
    <vehicle id="6437" depart="643.70">
        <route edges="e23_n e23_ce"/>
    </vehicle>
    <vehicle id="6480" depart="648.00">
        <route edges="e24_s e24_ce"/>
    </vehicle>
    <vehicle id="6577" depart="657.70">
        <route edges="e41_n e41_cw"/>
    </vehicle>
    <vehicle id="6595" depart="659.50">
        <route edges="e43_w e43_ce"/>
    </vehicle>
    <vehicle id="6632" depart="663.20">
        <route edges="e12_s e12_cw"/>
    </vehicle>
    <vehicle id="6646" depart="664.60">
        <route edges="e22_e e22_cn"/>
    </vehicle>
    <vehicle id="6731" depart="673.10">
        <route edges="e42_e2ce e42_ce2cw e42_cw2s"/>
    </vehicle>
    <vehicle id="6773" depart="677.30">
        <route edges="e31_main_w e31_main_ce"/>
    </vehicle>
    <vehicle id="6837" depart="683.70">
        <route edges="e41_w e41_cn"/>
    </vehicle>
    <vehicle id="6841" depart="684.10">
        <route edges="e45_s e45_cw"/>
    </vehicle>
    <vehicle id="6888" depart="688.80">
        <route edges="e34_main_w e34_side_cs"/>
    </vehicle>
    <vehicle id="6896" depart="689.60">
        <route edges="e13_w e13_cs"/>
    </vehicle>
    <vehicle id="6929" depart="692.90">
        <route edges="e31_main_w e31_side_cs"/>
    </vehicle>
    <vehicle id="6972" depart="697.20">
        <route edges="e41_n e41_cs"/>
    </vehicle>
    <vehicle id="6988" depart="698.80">
        <route edges="e23_s e23_cn"/>
    </vehicle>
    <vehicle id="7027" depart="702.70">
        <route edges="e15_nw e15_cs"/>
    </vehicle>
    <vehicle id="7030" depart="703.00">
        <route edges="e32_main_w e32_main_ce"/>
    </vehicle>
    <vehicle id="7031" depart="703.10">
        <route edges="e42_w2cw e42_cw2ce e42_ce2e"/>
    </vehicle>
    <vehicle id="7032" depart="703.20">
        <route edges="e32_main_w e32_side_cn"/>
    </vehicle>
    <vehicle id="7041" depart="704.10">
        <route edges="e25_w e25_w.89 e25_cs e25_cs.35"/>
    </vehicle>
    <vehicle id="7079" depart="707.90">
        <route edges="e34_main_w e34_side_cn"/>
    </vehicle>
    <vehicle id="7090" depart="709.00">
        <route edges="e22_s e22_cn"/>
    </vehicle>
    <vehicle id="7139" depart="713.90">
        <route edges="e43_n e43_cs"/>
    </vehicle>
    <vehicle id="7173" depart="717.30">
        <route edges="e35_main_w e35_main_ce"/>
    </vehicle>
    <vehicle id="7210" depart="721.00">
        <route edges="e11_e e11_cs"/>
    </vehicle>
    <vehicle id="7223" depart="722.30">
        <route edges="e22_s e22_cn"/>
    </vehicle>
    <vehicle id="7235" depart="723.50">
        <route edges="e31_side_n e31_side_cs"/>
    </vehicle>
    <vehicle id="7282" depart="728.20">
        <route edges="e24_e e24_cs"/>
    </vehicle>
    <vehicle id="7304" depart="730.40">
        <route edges="e33_main_e e33_side_cn"/>
    </vehicle>
    <vehicle id="7322" depart="732.20">
        <route edges="e22_e e22_cn"/>
    </vehicle>
    <vehicle id="7422" depart="742.20">
        <route edges="e41_w e41_cs"/>
    </vehicle>
    <vehicle id="7426" depart="742.60">
        <route edges="e32_main_w e32_side_cn"/>
    </vehicle>
    <vehicle id="7439" depart="743.90">
        <route edges="e42_w2cw e42_cw2ce e42_ce2n"/>
    </vehicle>
    <vehicle id="7448" depart="744.80">
        <route edges="e42_n2ce e42_ce2e"/>
    </vehicle>
    <vehicle id="7561" depart="756.10">
        <route edges="e24_s e24_cn"/>
    </vehicle>
    <vehicle id="7651" depart="765.10">
        <route edges="e25_n e25_ce"/>
    </vehicle>
    <vehicle id="7669" depart="766.90">
        <route edges="e43_e e43_cn"/>
    </vehicle>
    <vehicle id="7696" depart="769.60">
        <route edges="e21_s e21_cw"/>
    </vehicle>
    <vehicle id="7718" depart="771.80">
        <route edges="e45_n e45_ce"/>
    </vehicle>
    <vehicle id="7741" depart="774.10">
        <route edges="e42_n2ce e42_ce2cw e42_cw2w"/>
    </vehicle>
    <vehicle id="7746" depart="774.60">
        <route edges="e31_side_s e31_main_ce"/>
    </vehicle>
    <vehicle id="7749" depart="774.90">
        <route edges="e32_side_s e32_main_cw"/>
    </vehicle>
    <vehicle id="7759" depart="775.90">
        <route edges="e31_side_n e31_main_cw"/>
    </vehicle>
    <vehicle id="7768" depart="776.80">
        <route edges="e22_n e22_cs"/>
    </vehicle>
    <vehicle id="7770" depart="777.00">
        <route edges="e42_e2ce e42_ce2cw e42_cw2w"/>
    </vehicle>
    <vehicle id="7826" depart="782.60">
        <route edges="e23_w e23_ce"/>
    </vehicle>
    <vehicle id="7859" depart="785.90">
        <route edges="e41_n e41_cw"/>
    </vehicle>
    <vehicle id="7877" depart="787.70">
        <route edges="e22_n e22_cs"/>
    </vehicle>
    <vehicle id="7897" depart="789.70">
        <route edges="e41_e e41_cs"/>
    </vehicle>
    <vehicle id="7911" depart="791.10">
        <route edges="e42_n2ce e42_ce2e"/>
    </vehicle>
    <vehicle id="7939" depart="793.90">
        <route edges="e44_n e44_cs"/>
    </vehicle>
    <vehicle id="7946" depart="794.60">
        <route edges="e45_s e45_cn"/>
    </vehicle>
    <vehicle id="7950" depart="795.00">
        <route edges="e42_e2ce e42_ce2cw e42_cw2s"/>
    </vehicle>
    <vehicle id="8001" depart="800.10">
        <route edges="e31_side_s e31_main_cw"/>
    </vehicle>
    <vehicle id="8022" depart="802.20">
        <route edges="e22_n e22_cs"/>
    </vehicle>
    <vehicle id="8057" depart="805.70">
        <route edges="e12_w e12_cs"/>
    </vehicle>
    <vehicle id="8060" depart="806.00">
        <route edges="e41_n e41_cw"/>
    </vehicle>
    <vehicle id="8091" depart="809.10">
        <route edges="e34_side_s e34_side_cn"/>
    </vehicle>
    <vehicle id="8103" depart="810.30">
        <route edges="e31_side_s e31_side_cn"/>
    </vehicle>
    <vehicle id="8143" depart="814.30">
        <route edges="e41_n e41_ce"/>
    </vehicle>
    <vehicle id="8245" depart="824.50">
        <route edges="e41_n e41_ce"/>
    </vehicle>
    <vehicle id="8248" depart="824.80">
        <route edges="e32_main_e e32_side_cn"/>
    </vehicle>
    <vehicle id="8272" depart="827.20">
        <route edges="e25_s e25_cn"/>
    </vehicle>
    <vehicle id="8284" depart="828.40">
        <route edges="e43_n e43_cw"/>
    </vehicle>
    <vehicle id="8398" depart="839.80">
        <route edges="e34_main_e e34_side_cn"/>
    </vehicle>