<?xml version="1.0" encoding="UTF-8"?>

<!-- generated on 2026-01-19 22:03:52.239135 by Eclipse SUMO randomTrips.py UNKNOWN
<configuration>
    <net-file value="mega_catalogue_v2.net.xml"/>
    <output-trip-file value="random_traffic.rou.xml"/>
    <fringe-factor value="10"/>
    <min-distance value="50.0"/>
    <end value="300.0"/>
    <period value="1.0"/>
</configuration>
-->

<!-- generated on 2026-01-19T22:03:52.233795+01:00 by Eclipse SUMO duarouter 1.25.0
<duarouterConfiguration xmlns:xsi="http://www.w3.org/2001/XMLSchema-instance" xsi:noNamespaceSchemaLocation="http://sumo.dlr.de/xsd/duarouterConfiguration.xsd">

    <input>
        <net-file value="mega_catalogue_v2.net.xml"/>
        <route-files value="random_traffic.rou.xml"/>
    </input>

    <output>
        <output-file value="routes.rou.xml"/>
        <alternatives-output value="NUL"/>
    </output>

    <time>
        <begin value="0"/>
        <end value="300.0"/>
    </time>

    <report>
        <no-warnings value="true"/>
        <ignore-errors value="true"/>
        <no-step-log value="true"/>
    </report>

</duarouterConfiguration>
-->

<routes xmlns:xsi="http://www.w3.org/2001/XMLSchema-instance" xsi:noNamespaceSchemaLocation="http://sumo.dlr.de/xsd/routes_file.xsd">
    <vehicle id="56" depart="56.00">
        <route edges="e43_w e43_ce"/>
    </vehicle>
    <vehicle id="78" depart="78.00">
        <route edges="e21_n e21_ce"/>
    </vehicle>
    <vehicle id="88" depart="88.00">
        <route edges="e25_cs e25_cs.35"/>
    </vehicle>
    <vehicle id="106" depart="106.00">
        <route edges="e45_e e45_cw"/>
    </vehicle>
    <vehicle id="118" depart="118.00">
        <route edges="e33_main_e e33_main_cw"/>
    </vehicle>
    <vehicle id="228" depart="228.00">
        <route edges="e22_e e22_cw"/>
    </vehicle>
    <vehicle id="242" depart="242.00">
        <route edges="e21_n e21_ce"/>
    </vehicle>
    <vehicle id="279" depart="279.00">
        <route edges="e42_s2cw e42_cw2ce e42_ce2e"/>
    </vehicle>
</routes>
