<?xml version="1.0" encoding="UTF-8"?>

<!-- generated on 2026-03-11 13:20:38.110088 by Eclipse SUMO randomTrips.py UNKNOWN
<configuration>
    <net-file value="mega_catalogue_v2.net.xml"/>
    <output-trip-file value="test_random.rou.xml"/>
    <fringe-factor value="10"/>
    <allow-fringe value="True"/>
    <min-distance value="50.0"/>
    <period value="1.79"/>
</configuration>
-->

<!-- generated on 2026-03-11T13:20:38.089405+01:00 by Eclipse SUMO duarouter 1.25.0
<duarouterConfiguration xmlns:xsi="http://www.w3.org/2001/XMLSchema-instance" xsi:noNamespaceSchemaLocation="http://sumo.dlr.de/xsd/duarouterConfiguration.xsd">

    <input>
        <net-file value="mega_catalogue_v2.net.xml"/>
        <route-files value="test_random.rou.xml"/>
    </input>

    <output>
        <output-file value="routes.rou.xml"/>
        <alternatives-output value="NUL"/>
    </output>

    <time>
        <begin value="0"/>
        <end value="3600.0"/>
    </time>

    <report>
        <no-warnings value="true"/>
        <ignore-errors value="true"/>
        <no-step-log value="true"/>
    </report>

</duarouterConfiguration>
-->

<routes xmlns:xsi="http://www.w3.org/2001/XMLSchema-instance" xsi:noNamespaceSchemaLocation="http://sumo.dlr.de/xsd/routes_file.xsd">
    <vehicle id="56" depart="100.24">
        <route edges="e43_w e43_ce"/>
    </vehicle>
    <vehicle id="78" depart="139.62">
        <route edges="e21_n e21_ce"/>
    </vehicle>
    <vehicle id="106" depart="189.74">
        <route edges="e45_e"/>
    </vehicle>
    <vehicle id="129" depart="230.91">
        <route edges="e43_e e43_cn"/>
    </vehicle>
    <vehicle id="279" depart="499.41">
        <route edges="e42_s2cw e42_cw2ce e42_ce2e"/>
    </vehicle>
    <vehicle id="321" depart="574.59">
        <route edges="e25_w e25_w.89 e25_ce"/>
    </vehicle>
    <vehicle id="334" depart="597.86">
        <route edges="e33_side_n e33_main_cw"/>
    </vehicle>
    <vehicle id="366" depart="655.14">
        <route edges="e23_s e23_ce"/>
    </vehicle>
    <vehicle id="397" depart="710.63">
        <route edges="e22_n e22_cs"/>
    </vehicle>
    <vehicle id="401" depart="717.79">
        <route edges="e32_main_w e32_main_ce"/>
    </vehicle>
    <vehicle id="406" depart="726.74">
        <route edges="e35_side_s e35_main_ce"/>
    </vehicle>
    <vehicle id="452" depart="809.08">
        <route edges="e33_side_s e33_side_cn"/>
    </vehicle>
    <vehicle id="543" depart="971.97">
        <route edges="e32_side_s e32_main_cw"/>
    </vehicle>
    <vehicle id="612" depart="1095.48">
        <route edges="e22_w e22_ce"/>
    </vehicle>
    <vehicle id="636" depart="1138.44">
        <route edges="e43_w e43_ce"/>
    </vehicle>
    <vehicle id="702" depart="1256.58">
        <route edges="e31_side_s e31_main_cw"/>
    </vehicle>
    <vehicle id="739" depart="1322.81">
        <route edges="e45_s e45_ce"/>
    </vehicle>
    <vehicle id="795" depart="1423.05">
        <route edges="e11_s e11_cw"/>
    </vehicle>
    <vehicle id="803" depart="1437.37">
        <route edges="e12_w e12_ce"/>
    </vehicle>
    <vehicle id="818" depart="1464.22">
        <route edges="e31_side_n e31_main_cw"/>
    </vehicle>
    <vehicle id="840" depart="1503.60">
        <route edges="e25_w e25_w.89 e25_cs e25_cs.35"/>
    </vehicle>
    <vehicle id="853" depart="1526.87">
        <route edges="e41_s e41_cn"/>
    </vehicle>
    <vehicle id="869" depart="1555.51">
        <route edges="e23_n e23_cs"/>
    </vehicle>
    <vehicle id="875" depart="1566.25">
        <route edges="e22_s e22_cn"/>
    </vehicle>
    <vehicle id="877" depart="1569.83">
        <route edges="e23_cs"/>
    </vehicle>
    <vehicle id="883" depart="1580.57">
        <route edges="e22_s e22_cn"/>
    </vehicle>
    <vehicle id="965" depart="1727.35">
        <route edges="e43_e e43_cw"/>
    </vehicle>
    <vehicle id="994" depart="1779.26">
        <route edges="e43_e e43_cw"/>
    </vehicle>
    <vehicle id="1024" depart="1832.96">
        <route edges="e31_side_n e31_main_ce"/>
    </vehicle>
    <vehicle id="1094" depart="1958.26">
        <route edges="e34_side_n e34_main_cw"/>
    </vehicle>
    <vehicle id="1122" depart="2008.38">
        <route edges="e23_e e23_cn"/>
    </vehicle>
    <vehicle id="1123" depart="2010.17">
        <route edges="e42_e2ce e42_ce2cw e42_cw2w"/>
    </vehicle>
    <vehicle id="1155" depart="2067.45">
        <route edges="e32_side_s e32_side_cn"/>
    </vehicle>
    <vehicle id="1185" depart="2121.15">
        <route edges="e33_main_e e33_main_cw"/>
    </vehicle>
    <vehicle id="1203" depart="2153.37">
        <route edges="e31_main_w e31_main_ce"/>
    </vehicle>
    <vehicle id="1293" depart="2314.47">
        <route edges="e31_side_n e31_main_cw"/>
    </vehicle>
    <vehicle id="1299" depart="2325.21">
        <route edges="e45_s e45_cw"/>
    </vehicle>
    <vehicle id="1491" depart="2668.89">
        <route edges="e33_main_e e33_main_cw"/>
    </vehicle>
    <vehicle id="1498" depart="2681.42">
        <route edges="e22_e e22_cn"/>
    </vehicle>
    <vehicle id="1540" depart="2756.60">
        <route edges="e44_w e44_ce"/>
    </vehicle>
    <vehicle id="1567" depart="2804.93">
        <route edges="e42_n2ce e42_ce2cw e42_cw2s"/>
    </vehicle>
    <vehicle id="1581" depart="2829.99">
        <route edges="e34_main_e e34_side_cn"/>
    </vehicle>
    <vehicle id="1608" depart="2878.32">
        <route edges="e24_w e24_cn"/>
    </vehicle>
    <vehicle id="1677" depart="3001.83">
        <route edges="e13_w e13_cs"/>
    </vehicle>
    <vehicle id="1688" depart="3021.52">
        <route edges="e21_w e21_cn"/>
    </vehicle>
    <vehicle id="1727" depart="3091.33">
        <route edges="e42_s2cw e42_cw2w"/>
    </vehicle>
    <vehicle id="1766" depart="3161.14">
        <route edges="e31_main_e e31_main_cw"/>
    </vehicle>
    <vehicle id="1831" depart="3277.49">
        <route edges="e23_n e23_cw"/>
    </vehicle>
    <vehicle id="1837" depart="3288.23">
        <route edges="e33_main_w e33_side_cn"/>
    </vehicle>
    <vehicle id="1914" depart="3426.06">
        <route edges="e32_main_w e32_main_ce"/>
    </vehicle>
    <vehicle id="1932" depart="3458.28">
        <route edges="e25_w e25_w.89 e25_cs"/>
    </vehicle>
    <vehicle id="1945" depart="3481.55">
        <route edges="e14_e e14_cw"/>
    </vehicle>
</routes>
