<?xml version="1.0" encoding="UTF-8"?>

<!-- generated on 2026-02-08 14:23:41.806569 by Eclipse SUMO randomTrips.py UNKNOWN
<configuration>
    <net-file value="/Users/wagnertamas/Documents/Munka/cikkek/AI_agens_konyvtar/support/intergreen_matrix_calculator/mega_catalogue_v2.net.xml"/>
    <output-trip-file value="random_traffic.rou_ALL_1770552567_3620.xml"/>
    <fringe-factor value="10"/>
    <min-distance value="50.0"/>
    <period value="0.0052"/>
    <duarouter-routing-algorithm value="CH"/>
    <duarouter-routing-threads value="4"/>
</configuration>
-->

<!-- generated on 2026-02-08T14:23:33.796729+01:00 by Eclipse SUMO duarouter 1.25.0
<duarouterConfiguration xmlns:xsi="http://www.w3.org/2001/XMLSchema-instance" xsi:noNamespaceSchemaLocation="http://sumo.dlr.de/xsd/duarouterConfiguration.xsd">

    <input>
        <net-file value="/Users/wagnertamas/Documents/Munka/cikkek/AI_agens_konyvtar/support/intergreen_matrix_calculator/mega_catalogue_v2.net.xml"/>
        <route-files value="random_traffic.rou_ALL_1770552567_3620.xml"/>
    </input>

    <output>
        <output-file value="routes.rou.xml"/>
        <alternatives-output value="NUL"/>
    </output>

    <processing>
        <routing-threads value="4"/>
        <routing-algorithm value="CH"/>
    </processing>

    <time>
        <begin value="0"/>
        <end value="3600.0"/>
    </time>

    <report>
        <no-warnings value="true"/>
        <ignore-errors value="true"/>
        <no-step-log value="true"/>
    </report>

</duarouterConfiguration>
-->

<routes xmlns:xsi="http://www.w3.org/2001/XMLSchema-instance" xsi:noNamespaceSchemaLocation="http://sumo.dlr.de/xsd/routes_file.xsd">
    <vehicle id="56" depart="0.29">
        <route edges="e43_w e43_ce"/>
    </vehicle>
    <vehicle id="78" depart="0.41">
        <route edges="e21_n e21_ce"/>
    </vehicle>
    <vehicle id="88" depart="0.46">
        <route edges="e25_cs e25_cs.35"/>
    </vehicle>
    <vehicle id="106" depart="0.55">
        <route edges="e45_e e45_cw"/>
    </vehicle>
    <vehicle id="118" depart="0.61">
        <route edges="e33_main_e e33_main_cw"/>
    </vehicle>
    <vehicle id="228" depart="1.19">
        <route edges="e22_e e22_cw"/>
    </vehicle>
    <vehicle id="242" depart="1.26">
        <route edges="e21_n e21_ce"/>
    </vehicle>
    <vehicle id="279" depart="1.45">
        <route edges="e42_s2cw e42_cw2ce e42_ce2e"/>
    </vehicle>
    <vehicle id="321" depart="1.67">
        <route edges="e25_w e25_w.89 e25_ce"/>
    </vehicle>
    <vehicle id="334" depart="1.74">
        <route edges="e33_side_n e33_main_cw"/>
    </vehicle>
    <vehicle id="358" depart="1.86">
        <route edges="e45_e e45_cw"/>
    </vehicle>
    <vehicle id="365" depart="1.90">
        <route edges="e23_s e23_ce"/>
    </vehicle>
    <vehicle id="396" depart="2.06">
        <route edges="e22_n e22_cs"/>
    </vehicle>
    <vehicle id="400" depart="2.08">
        <route edges="e32_main_w e32_main_ce"/>
    </vehicle>
    <vehicle id="405" depart="2.11">
        <route edges="e35_side_s e35_main_ce"/>
    </vehicle>
    <vehicle id="435" depart="2.26">
        <route edges="e21_w e21_cs"/>
    </vehicle>
    <vehicle id="452" depart="2.35">
        <route edges="e33_side_s e33_main_cw"/>
    </vehicle>
    <vehicle id="542" depart="2.82">
        <route edges="e32_side_s e32_main_cw"/>
    </vehicle>
    <vehicle id="587" depart="3.05">
        <route edges="e32_side_s e32_side_cn"/>
    </vehicle>
    <vehicle id="611" depart="3.18">
        <route edges="e22_w e22_ce"/>
    </vehicle>
    <vehicle id="635" depart="3.30">
        <route edges="e43_w e43_ce"/>
    </vehicle>
    <vehicle id="646" depart="3.36">
        <route edges="e23_w e23_cs"/>
    </vehicle>
    <vehicle id="647" depart="3.36">
        <route edges="e15_nw e15_cs"/>
    </vehicle>
    <vehicle id="665" depart="3.46">
        <route edges="e45_e e45_cs"/>
    </vehicle>
    <vehicle id="702" depart="3.65">
        <route edges="e31_side_s e31_main_cw"/>
    </vehicle>
    <vehicle id="739" depart="3.84">
        <route edges="e45_s e45_ce"/>
    </vehicle>
    <vehicle id="802" depart="4.17">
        <route edges="e12_w e12_ce"/>
    </vehicle>
    <vehicle id="803" depart="4.18">
        <route edges="e25_n e25_cw"/>
    </vehicle>
    <vehicle id="817" depart="4.25">
        <route edges="e31_side_n e31_main_ce"/>
    </vehicle>
    <vehicle id="839" depart="4.36">
        <route edges="e25_w e25_w.89 e25_cn"/>
    </vehicle>
    <vehicle id="852" depart="4.43">
        <route edges="e41_s e41_cn"/>
    </vehicle>
    <vehicle id="855" depart="4.45">
        <route edges="e33_side_n e33_main_cw"/>
    </vehicle>
    <vehicle id="873" depart="4.54">
        <route edges="e22_s e22_cn"/>
    </vehicle>
    <vehicle id="875" depart="4.55">
        <route edges="e23_e e23_cn"/>
    </vehicle>
    <vehicle id="881" depart="4.58">
        <route edges="e22_s e22_cn"/>
    </vehicle>
    <vehicle id="963" depart="5.01">
        <route edges="e43_e e43_cw"/>
    </vehicle>
    <vehicle id="992" depart="5.16">
        <route edges="e43_n e43_cw"/>
    </vehicle>
    <vehicle id="1022" depart="5.31">
        <route edges="e31_side_n e31_main_ce"/>
    </vehicle>
    <vehicle id="1070" depart="5.56">
        <route edges="e43_e e43_cn"/>
    </vehicle>
    <vehicle id="1121" depart="5.83">
        <route edges="e42_e2ce e42_ce2cw e42_cw2w"/>
    </vehicle>
    <vehicle id="1153" depart="6.00">
        <route edges="e32_side_s e32_side_cn"/>
    </vehicle>
    <vehicle id="1177" depart="6.12">
        <route edges="e41_e e41_cw"/>
    </vehicle>
    <vehicle id="1183" depart="6.15">
        <route edges="e33_main_e e33_main_cw"/>
    </vehicle>
    <vehicle id="1188" depart="6.18">
        <route edges="e13_e e13_cw"/>
    </vehicle>
    <vehicle id="1201" depart="6.25">
        <route edges="e31_main_w e31_main_ce"/>
    </vehicle>
    <vehicle id="1291" depart="6.71">
        <route edges="e31_side_n e31_main_cw"/>
    </vehicle>
    <vehicle id="1297" depart="6.74">
        <route edges="e45_s e45_cw"/>
    </vehicle>
    <vehicle id="1315" depart="6.84">
        <route edges="e35_main_e e35_side_cn"/>
    </vehicle>
    <vehicle id="1371" depart="7.13">
        <route edges="e13_s e13_cw"/>
    </vehicle>
    <vehicle id="1375" depart="7.15">
        <route edges="e22_e e22_cw"/>
    </vehicle>
    <vehicle id="1410" depart="7.33">
        <route edges="e15_ne e15_cs"/>
    </vehicle>
    <vehicle id="1419" depart="7.38">
        <route edges="e41_w e41_cs"/>
    </vehicle>
    <vehicle id="1439" depart="7.48">
        <route edges="e32_side_n e32_main_cw"/>
    </vehicle>
    <vehicle id="1451" depart="7.55">
        <route edges="e42_s2cw e42_cw2w"/>
    </vehicle>
    <vehicle id="1484" depart="7.72">
        <route edges="e22_s e22_cw"/>
    </vehicle>
    <vehicle id="1489" depart="7.74">
        <route edges="e33_main_e e33_main_cw"/>
    </vehicle>
    <vehicle id="1510" depart="7.85">
        <route edges="e21_n e21_cw"/>
    </vehicle>
    <vehicle id="1525" depart="7.93">
        <route edges="e45_s e45_cn"/>
    </vehicle>
    <vehicle id="1538" depart="8.00">
        <route edges="e44_w e44_ce"/>
    </vehicle>
    <vehicle id="1557" depart="8.10">
        <route edges="e15_nw e15_cs"/>
    </vehicle>
    <vehicle id="1578" depart="8.21">
        <route edges="e34_main_e e34_side_cn"/>
    </vehicle>
    <vehicle id="1605" depart="8.35">
        <route edges="e24_w e24_ce"/>
    </vehicle>
    <vehicle id="1674" depart="8.70">
        <route edges="e13_w e13_ce"/>
    </vehicle>
    <vehicle id="1675" depart="8.71">
        <route edges="e15_s e15_cnw"/>
    </vehicle>
    <vehicle id="1686" depart="8.77">
        <route edges="e21_w e21_cn"/>
    </vehicle>
    <vehicle id="1713" depart="8.91">
        <route edges="e22_e e22_cw"/>
    </vehicle>
    <vehicle id="1763" depart="9.17">
        <route edges="e31_main_e e31_main_cw"/>
    </vehicle>
    <vehicle id="1828" depart="9.51">
        <route edges="e23_n e23_cs"/>
    </vehicle>
    <vehicle id="1834" depart="9.54">
        <route edges="e33_main_w e33_side_cn"/>
    </vehicle>
    <vehicle id="1884" depart="9.80">
        <route edges="e42_w2cw e42_cw2s"/>
    </vehicle>
    <vehicle id="1912" depart="9.94">
        <route edges="e32_main_w e32_main_ce"/>
    </vehicle>
    <vehicle id="1930" depart="10.04">
        <route edges="e25_w e25_w.89 e25_cn"/>
    </vehicle>
    <vehicle id="1943" depart="10.10">
        <route edges="e14_s e14_cw"/>
    </vehicle>
    <vehicle id="1985" depart="10.32">
        <route edges="e13_s e13_cw"/>
    </vehicle>
    <vehicle id="1992" depart="10.36">
        <route edges="e34_main_e e34_side_cn"/>
    </vehicle>
    <vehicle id="2042" depart="10.62">
        <route edges="e41_n e41_ce"/>
    </vehicle>
    <vehicle id="2063" depart="10.73">
        <route edges="e34_side_n e34_main_cw"/>
    </vehicle>
    <vehicle id="2068" depart="10.75">
        <route edges="e43_s e43_ce"/>
    </vehicle>
    <vehicle id="2141" depart="11.13">
        <route edges="e33_main_e e33_side_cn"/>
    </vehicle>
    <vehicle id="2147" depart="11.16">
        <route edges="e22_e e22_cs"/>
    </vehicle>
    <vehicle id="2150" depart="11.18">
        <route edges="e25_w E0"/>
    </vehicle>
    <vehicle id="2152" depart="11.19">
        <route edges="e25_w E0"/>
    </vehicle>
    <vehicle id="2155" depart="11.21">
        <route edges="e24_e e24_cs"/>
    </vehicle>
    <vehicle id="2158" depart="11.22">
        <route edges="e24_n e24_ce"/>
    </vehicle>
    <vehicle id="2166" depart="11.26">
        <route edges="e33_side_s e33_main_cw"/>
    </vehicle>
    <vehicle id="2181" depart="11.34">
        <route edges="e42_s2cw e42_cw2ce e42_ce2e"/>
    </vehicle>
    <vehicle id="2209" depart="11.49">
        <route edges="e41_e e41_cw"/>
    </vehicle>
    <vehicle id="2215" depart="11.52">
        <route edges="e15_nw e15_cne"/>
    </vehicle>
    <vehicle id="2261" depart="11.76">
        <route edges="e23_e e23_cw"/>
    </vehicle>
    <vehicle id="2357" depart="12.26">
        <route edges="e33_main_w e33_side_cn"/>
    </vehicle>
    <vehicle id="2365" depart="12.30">
        <route edges="e45_w e45_cs"/>
    </vehicle>
    <vehicle id="2372" depart="12.33">
        <route edges="e24_w e24_cs"/>
    </vehicle>
    <vehicle id="2457" depart="12.78">
        <route edges="e31_side_s e31_side_cn"/>
    </vehicle>
    <vehicle id="2499" depart="12.99">
        <route edges="e35_side_s e35_main_ce"/>
    </vehicle>
    <vehicle id="2505" depart="13.03">
        <route edges="e41_s e41_cn"/>
    </vehicle>
    <vehicle id="2545" depart="13.23">
        <route edges="e25_w e25_w.89 e25_cn"/>
    </vehicle>
    <vehicle id="2596" depart="13.50">
        <route edges="e24_n e24_ce"/>
    </vehicle>
    <vehicle id="2671" depart="13.89">
        <route edges="e35_side_s e35_side_cn"/>
    </vehicle>
    <vehicle id="2756" depart="14.33">
        <route edges="e41_w e41_ce"/>
    </vehicle>
    <vehicle id="2788" depart="14.50">
        <route edges="e41_w e41_ce"/>
    </vehicle>
    <vehicle id="2811" depart="14.62">
        <route edges="e33_side_s e33_main_cw"/>
    </vehicle>
    <vehicle id="2842" depart="14.78">
        <route edges="e41_w e41_cs"/>
    </vehicle>
    <vehicle id="2859" depart="14.87">
        <route edges="e31_main_e e31_side_cn"/>
    </vehicle>
    <vehicle id="2993" depart="15.56">
        <route edges="e41_n e41_ce"/>
    </vehicle>
    <vehicle id="3049" depart="15.85">
        <route edges="e12_e e12_cs"/>
    </vehicle>
    <vehicle id="3079" depart="16.01">
        <route edges="e23_w e23_cs"/>
    </vehicle>
    <vehicle id="3089" depart="16.06">
        <route edges="e24_e e24_cn"/>
    </vehicle>
    <vehicle id="3181" depart="16.54">
        <route edges="e42_e2ce e42_ce2n"/>
    </vehicle>
    <vehicle id="3206" depart="16.67">
        <route edges="e24_s e24_cw"/>
    </vehicle>
    <vehicle id="3225" depart="16.77">
        <route edges="e34_side_s e34_side_cn"/>
    </vehicle>
    <vehicle id="3226" depart="16.78">
        <route edges="e35_main_w e35_main_ce"/>
    </vehicle>
    <vehicle id="3247" depart="16.88">
        <route edges="e22_e e22_cw"/>
    </vehicle>
    <vehicle id="3282" depart="17.07">
        <route edges="e24_e e24_cn"/>
    </vehicle>
    <vehicle id="3321" depart="17.27">
        <route edges="e15_nw e15_cne"/>
    </vehicle>
    <vehicle id="3351" depart="17.43">
        <route edges="e33_main_e e33_main_cw"/>
    </vehicle>
    <vehicle id="3382" depart="17.59">
        <route edges="e21_n e21_cw"/>
    </vehicle>
    <vehicle id="3383" depart="17.59">
        <route edges="e23_n e23_cs"/>
    </vehicle>
    <vehicle id="3390" depart="17.63">
        <route edges="e13_w e13_ce"/>
    </vehicle>
    <vehicle id="3409" depart="17.73">
        <route edges="e24_w e24_cs"/>
    </vehicle>
    <vehicle id="3460" depart="17.99">
        <route edges="e25_w e25_w.89 e25_cn"/>
    </vehicle>
    <vehicle id="3481" depart="18.10">
        <route edges="e43_s e43_cn"/>
    </vehicle>
    <vehicle id="3490" depart="18.15">
        <route edges="e25_s e25_cn"/>
    </vehicle>
    <vehicle id="3570" depart="18.56">
        <route edges="e42_e2ce e42_ce2n"/>
    </vehicle>
    <vehicle id="3613" depart="18.79">
        <route edges="e33_main_e e33_side_cn"/>
    </vehicle>
    <vehicle id="3652" depart="18.99">
        <route edges="e42_n2ce e42_ce2cw e42_cw2w"/>
    </vehicle>
    <vehicle id="3656" depart="19.01">
        <route edges="e34_main_w e34_side_cs"/>
    </vehicle>
    <vehicle id="3703" depart="19.26">
        <route edges="e23_e e23_cw"/>
    </vehicle>
    <vehicle id="3726" depart="19.38">
        <route edges="e15_s e15_cnw"/>
    </vehicle>
    <vehicle id="3740" depart="19.45">
        <route edges="e41_s e41_ce"/>
    </vehicle>
    <vehicle id="3756" depart="19.53">
        <route edges="e33_side_s e33_main_ce"/>
    </vehicle>
    <vehicle id="3798" depart="19.75">
        <route edges="e35_main_e e35_main_cw"/>
    </vehicle>
    <vehicle id="3828" depart="19.91">
        <route edges="e41_n e41_ce"/>
    </vehicle>
    <vehicle id="3853" depart="20.04">
        <route edges="e34_side_s e34_side_cn"/>
    </vehicle>
    <vehicle id="3903" depart="20.30">
        <route edges="e25_s e25_cn"/>
    </vehicle>
    <vehicle id="3918" depart="20.37">
        <route edges="e31_side_n e31_main_ce"/>
    </vehicle>
    <vehicle id="3971" depart="20.65">
        <route edges="e23_w e23_ce"/>
    </vehicle>
    <vehicle id="3973" depart="20.66">
        <route edges="e35_main_e e35_main_cw"/>
    </vehicle>
    <vehicle id="4011" depart="20.86">
        <route edges="e33_main_e e33_side_cs"/>
    </vehicle>
    <vehicle id="4176" depart="21.72">
        <route edges="e35_main_w e35_main_ce"/>
    </vehicle>
    <vehicle id="4213" depart="21.91">
        <route edges="e15_s e15_cnw"/>
    </vehicle>
    <vehicle id="4224" depart="21.96">
        <route edges="e13_w e13_cs"/>
    </vehicle>
    <vehicle id="4249" depart="22.09">
        <route edges="e22_w e22_ce"/>
    </vehicle>
    <vehicle id="4324" depart="22.48">
        <route edges="e15_nw e15_cne"/>
    </vehicle>
    <vehicle id="4330" depart="22.52">
        <route edges="e12_w e12_cs"/>
    </vehicle>
    <vehicle id="4358" depart="22.66">
        <route edges="e13_w e13_ce"/>
    </vehicle>
    <vehicle id="4361" depart="22.68">
        <route edges="e44_n e44_ce"/>
    </vehicle>
    <vehicle id="4388" depart="22.82">
        <route edges="e35_side_s e35_main_ce"/>
    </vehicle>
    <vehicle id="4406" depart="22.91">
        <route edges="e12_w e12_cs"/>
    </vehicle>
    <vehicle id="4460" depart="23.19">
        <route edges="e23_n e23_cs"/>
    </vehicle>
    <vehicle id="4486" depart="23.33">
        <route edges="e33_side_n e33_side_cs"/>
    </vehicle>
    <vehicle id="4527" depart="23.54">
        <route edges="e35_side_s e35_side_cn"/>
    </vehicle>
    <vehicle id="4577" depart="23.80">
        <route edges="e45_n e45_cw"/>
    </vehicle>
    <vehicle id="4602" depart="23.93">
        <route edges="e33_side_n e33_side_cs"/>
    </vehicle>
    <vehicle id="4617" depart="24.01">
        <route edges="e45_s e45_cw"/>
    </vehicle>
    <vehicle id="4640" depart="24.13">
        <route edges="e33_side_n e33_main_ce"/>
    </vehicle>
    <vehicle id="4666" depart="24.26">
        <route edges="e14_e e14_cw"/>
    </vehicle>
    <vehicle id="4687" depart="24.37">
        <route edges="e15_ne e15_cnw"/>
    </vehicle>
    <vehicle id="4704" depart="24.46">
        <route edges="e21_n e21_cw"/>
    </vehicle>
    <vehicle id="4736" depart="24.63">
        <route edges="e31_side_s e31_main_ce"/>
    </vehicle>
    <vehicle id="4798" depart="24.95">
        <route edges="e22_w e22_cn"/>
    </vehicle>
    <vehicle id="4930" depart="25.64">
        <route edges="e44_w e44_ce"/>
    </vehicle>
    <vehicle id="5029" depart="26.15">
        <route edges="e25_n e25_cs e25_cs.35"/>
    </vehicle>
    <vehicle id="5050" depart="26.26">
        <route edges="e23_e e23_cw"/>
    </vehicle>
    <vehicle id="5069" depart="26.36">
        <route edges="e32_side_n e32_main_ce"/>
    </vehicle>
    <vehicle id="5089" depart="26.46">
        <route edges="e22_s e22_cw"/>
    </vehicle>
    <vehicle id="5093" depart="26.48">
        <route edges="e43_s e43_ce"/>
    </vehicle>
    <vehicle id="5100" depart="26.52">
        <route edges="e43_e e43_cw"/>
    </vehicle>
    <vehicle id="5104" depart="26.54">
        <route edges="e33_main_e e33_main_cw"/>
    </vehicle>
    <vehicle id="5144" depart="26.75">
        <route edges="e25_n e25_ce"/>
    </vehicle>
    <vehicle id="5196" depart="27.02">
        <route edges="e15_ne e15_cs"/>
    </vehicle>
    <vehicle id="5304" depart="27.58">
        <route edges="e14_s e14_cw"/>
    </vehicle>
    <vehicle id="5422" depart="28.19">
        <route edges="e41_n e41_cw"/>
    </vehicle>
    <vehicle id="5435" depart="28.26">
        <route edges="e13_s e13_cw"/>
    </vehicle>
    <vehicle id="5502" depart="28.61">
        <route edges="e22_e e22_cs"/>
    </vehicle>
    <vehicle id="5546" depart="28.84">
        <route edges="e23_e e23_cw"/>
    </vehicle>
    <vehicle id="5559" depart="28.91">
        <route edges="e33_side_s e33_main_cw"/>
    </vehicle>
    <vehicle id="5568" depart="28.95">
        <route edges="e42_w2cw e42_cw2s"/>
    </vehicle>
    <vehicle id="5571" depart="28.97">
        <route edges="e44_w e44_ce"/>
    </vehicle>
    <vehicle id="5581" depart="29.02">
        <route edges="e11_e e11_cs"/>
    </vehicle>
    <vehicle id="5602" depart="29.13">
        <route edges="e22_e e22_cn"/>
    </vehicle>
    <vehicle id="5622" depart="29.23">
        <route edges="e23_e e23_cw"/>
    </vehicle>
    <vehicle id="5629" depart="29.27">
        <route edges="e41_n e41_cs"/>
    </vehicle>
    <vehicle id="5643" depart="29.34">
        <route edges="e34_side_s e34_main_ce"/>
    </vehicle>
    <vehicle id="5657" depart="29.42">
        <route edges="e32_side_n e32_side_cs"/>
    </vehicle>
    <vehicle id="5677" depart="29.52">
        <route edges="e41_n e41_ce"/>
    </vehicle>
    <vehicle id="5682" depart="29.55">
        <route edges="e14_w e14_cs"/>
    </vehicle>
    <vehicle id="5683" depart="29.55">
        <route edges="e41_n e41_cs"/>
    </vehicle>
    <vehicle id="5687" depart="29.57">
        <route edges="e41_s e41_cn"/>
    </vehicle>
    <vehicle id="5691" depart="29.59">
        <route edges="e23_n e23_cs"/>
    </vehicle>
    <vehicle id="5716" depart="29.72">
        <route edges="e14_w e14_cs"/>
    </vehicle>
    <vehicle id="5727" depart="29.78">
        <route edges="e25_w e25_w.89 e25_cs e25_cs.35"/>
    </vehicle>
    <vehicle id="5737" depart="29.83">
        <route edges="e41_w e41_cs"/>
    </vehicle>
    <vehicle id="5756" depart="29.93">
        <route edges="e21_w e21_ce"/>
    </vehicle>
    <vehicle id="5822" depart="30.27">
        <route edges="e33_main_w e33_side_cs"/>
    </vehicle>
    <vehicle id="5842" depart="30.38">
        <route edges="e15_s e15_cne"/>
    </vehicle>
    <vehicle id="5890" depart="30.63">
        <route edges="e41_e e41_cw"/>
    </vehicle>
    <vehicle id="5912" depart="30.74">
        <route edges="e41_w e41_ce"/>
    </vehicle>
    <vehicle id="5956" depart="30.97">
        <route edges="e42_e2ce e42_ce2cw e42_cw2s"/>
    </vehicle>
    <vehicle id="6033" depart="31.37">
        <route edges="e15_nw e15_cne"/>
    </vehicle>
    <vehicle id="6069" depart="31.56">
        <route edges="e44_n e44_cs"/>
    </vehicle>
    <vehicle id="6073" depart="31.58">
        <route edges="e23_n e23_cw"/>
    </vehicle>
    <vehicle id="6121" depart="31.83">
        <route edges="e24_w e24_cs"/>
    </vehicle>
    <vehicle id="6124" depart="31.84">
        <route edges="e33_main_e e33_side_cn"/>
    </vehicle>
    <vehicle id="6237" depart="32.43">
        <route edges="e45_n e45_ce"/>
    </vehicle>
    <vehicle id="6263" depart="32.57">
        <route edges="e34_side_n e34_side_cs"/>
    </vehicle>
    <vehicle id="6283" depart="32.67">
        <route edges="e13_s e13_cw"/>
    </vehicle>
    <vehicle id="6296" depart="32.74">
        <route edges="e15_ne e15_cnw"/>
    </vehicle>
    <vehicle id="6323" depart="32.88">
        <route edges="e25_w e25_w.89 e25_cs e25_cs.35"/>
    </vehicle>
    <vehicle id="6373" depart="33.14">
        <route edges="e41_n e41_cs"/>
    </vehicle>
    <vehicle id="6379" depart="33.17">
        <route edges="e22_n e22_cw"/>
    </vehicle>
    <vehicle id="6480" depart="33.70">
        <route edges="e24_s e24_ce"/>
    </vehicle>
    <vehicle id="6577" depart="34.20">
        <route edges="e41_n e41_cw"/>
    </vehicle>
    <vehicle id="6595" depart="34.29">
        <route edges="e43_w e43_ce"/>
    </vehicle>
    <vehicle id="6632" depart="34.49">
        <route edges="e12_s e12_cw"/>
    </vehicle>
    <vehicle id="6646" depart="34.56">
        <route edges="e22_e e22_cn"/>
    </vehicle>
    <vehicle id="6731" depart="35.00">
        <route edges="e42_e2ce e42_ce2cw e42_cw2s"/>
    </vehicle>
    <vehicle id="6773" depart="35.22">
        <route edges="e31_main_w e31_main_ce"/>
    </vehicle>
    <vehicle id="6841" depart="35.57">
        <route edges="e45_s e45_cw"/>
    </vehicle>
    <vehicle id="6888" depart="35.82">
        <route edges="e34_main_w e34_side_cs"/>
    </vehicle>
    <vehicle id="6896" depart="35.86">
        <route edges="e13_w e13_cs"/>
    </vehicle>
    <vehicle id="6929" depart="36.03">
        <route edges="e31_main_w e31_side_cs"/>
    </vehicle>
    <vehicle id="6972" depart="36.25">
        <route edges="e41_n e41_cs"/>
    </vehicle>
    <vehicle id="6988" depart="36.34">
        <route edges="e23_s e23_cn"/>
    </vehicle>
    <vehicle id="7027" depart="36.54">
        <route edges="e15_nw e15_cs"/>
    </vehicle>
    <vehicle id="7030" depart="36.56">
        <route edges="e32_main_w e32_main_ce"/>
    </vehicle>
    <vehicle id="7031" depart="36.56">
        <route edges="e42_w2cw e42_cw2ce e42_ce2e"/>
    </vehicle>
    <vehicle id="7041" depart="36.61">
        <route edges="e25_w e25_w.89 e25_cs e25_cs.35"/>
    </vehicle>
    <vehicle id="7090" depart="36.87">
        <route edges="e22_s e22_cn"/>
    </vehicle>
    <vehicle id="7139" depart="37.12">
        <route edges="e43_n e43_cs"/>
    </vehicle>
    <vehicle id="7173" depart="37.30">
        <route edges="e35_main_w e35_main_ce"/>
    </vehicle>
    <vehicle id="7210" depart="37.49">
        <route edges="e11_e e11_cs"/>
    </vehicle>
    <vehicle id="7223" depart="37.56">
        <route edges="e22_s e22_cn"/>
    </vehicle>
    <vehicle id="7235" depart="37.62">
        <route edges="e31_side_n e31_side_cs"/>
    </vehicle>
    <vehicle id="7282" depart="37.87">
        <route edges="e24_e e24_cs"/>
    </vehicle>
    <vehicle id="7304" depart="37.98">
        <route edges="e33_main_e e33_side_cn"/>
    </vehicle>
    <vehicle id="7322" depart="38.07">
        <route edges="e22_e e22_cn"/>
    </vehicle>
    <vehicle id="7422" depart="38.59">
        <route edges="e41_w e41_cs"/>
    </vehicle>
    <vehicle id="7439" depart="38.68">
        <route edges="e42_w2cw e42_cw2ce e42_ce2n"/>
    </vehicle>
    <vehicle id="7448" depart="38.73">
        <route edges="e42_n2ce e42_ce2e"/>
    </vehicle>
    <vehicle id="7561" depart="39.32">
        <route edges="e24_s e24_cn"/>
    </vehicle>
    <vehicle id="7651" depart="39.79">
        <route edges="e25_n e25_ce"/>
    </vehicle>
    <vehicle id="7669" depart="39.88">
        <route edges="e43_e e43_cn"/>
    </vehicle>
    <vehicle id="7696" depart="40.02">
        <route edges="e21_s e21_cw"/>
    </vehicle>
    <vehicle id="7718" depart="40.13">
        <route edges="e45_n e45_ce"/>
    </vehicle>
    <vehicle id="7741" depart="40.25">
        <route edges="e42_n2ce e42_ce2cw e42_cw2w"/>
    </vehicle>
    <vehicle id="7746" depart="40.28">
        <route edges="e31_side_s e31_main_ce"/>
    </vehicle>
    <vehicle id="7749" depart="40.29">
        <route edges="e32_side_s e32_main_cw"/>
    </vehicle>
    <vehicle id="7759" depart="40.35">
        <route edges="e31_side_n e31_main_cw"/>
    </vehicle>
    <vehicle id="7768" depart="40.39">
        <route edges="e22_n e22_cs"/>
    </vehicle>
    <vehicle id="7770" depart="40.40">
        <route edges="e42_e2ce e42_ce2cw e42_cw2w"/>
    </vehicle>
    <vehicle id="7826" depart="40.70">
        <route edges="e23_w e23_ce"/>
    </vehicle>
    <vehicle id="7859" depart="40.87">
        <route edges="e41_n e41_cw"/>
    </vehicle>
    <vehicle id="7877" depart="40.96">
        <route edges="e22_n e22_cs"/>
    </vehicle>
    <vehicle id="7911" depart="41.14">
        <route edges="e42_n2ce e42_ce2e"/>
    </vehicle>
    <vehicle id="7939" depart="41.28">
        <route edges="e44_n e44_cs"/>
    </vehicle>
    <vehicle id="7946" depart="41.32">
        <route edges="e45_s e45_cn"/>
    </vehicle>
    <vehicle id="7950" depart="41.34">
        <route edges="e42_e2ce e42_ce2cw e42_cw2s"/>
    </vehicle>
    <vehicle id="8001" depart="41.61">
        <route edges="e31_side_s e31_main_cw"/>
    </vehicle>
    <vehicle id="8022" depart="41.71">
        <route edges="e22_n e22_cs"/>
    </vehicle>
    <vehicle id="8057" depart="41.90">
        <route edges="e12_w e12_cs"/>
    </vehicle>
    <vehicle id="8060" depart="41.91">
        <route edges="e41_n e41_cw"/>
    </vehicle>
    <vehicle id="8091" depart="42.07">
        <route edges="e34_side_s e34_side_cn"/>
    </vehicle>
    <vehicle id="8103" depart="42.14">
        <route edges="e31_side_s e31_side_cn"/>
    </vehicle>
    <vehicle id="8143" depart="42.34">
        <route edges="e41_n e41_ce"/>
    </vehicle>
    <vehicle id="8245" depart="42.87">
        <route edges="e41_n e41_ce"/>
    </vehicle>
    <vehicle id="8248" depart="42.89">
        <route edges="e32_main_e e32_side_cn"/>
    </vehicle>
    <vehicle id="8272" depart="43.01">
        <route edges="e25_s e25_cn"/>
    </vehicle>
    <vehicle id="8284" depart="43.08">
        <route edges="e43_n e43_cw"/>
    </vehicle>
    <vehicle id="8398" depart="43.67">
        <route edges="e34_main_e e34_side_cn"/>
    </vehicle>
    <vehicle id="8426" depart="43.82">
        <route edges="e12_w e12_ce"/>
    </vehicle>
    <vehicle id="8429" depart="43.83">
        <route edges="e24_s e24_cw"/>
    </vehicle>
    <vehicle id="8522" depart="44.31">
        <route edges="e11_e e11_cs"/>
    </vehicle>
    <vehicle id="8564" depart="44.53">
        <route edges="e25_n e25_ce"/>
    </vehicle>
    <vehicle id="8570" depart="44.56">
        <route edges="e14_e e14_cw"/>
    </vehicle>
    <vehicle id="8580" depart="44.62">
        <route edges="e31_side_s e31_main_ce"/>
    </vehicle>
    <vehicle id="8581" depart="44.62">
        <route edges="e45_s e45_ce"/>
    </vehicle>
    <vehicle id="8590" depart="44.67">
        <route edges="e45_w e45_ce"/>
    </vehicle>
    <vehicle id="8597" depart="44.70">
        <route edges="e42_n2ce e42_ce2cw e42_cw2s"/>
    </vehicle>
    <vehicle id="8652" depart="44.99">
        <route edges="e34_main_e e34_side_cn"/>
    </vehicle>
    <vehicle id="8680" depart="45.14">
        <route edges="e15_s e15_cnw"/>
    </vehicle>
    <vehicle id="8698" depart="45.23">
        <route edges="e21_n e21_ce"/>
    </vehicle>
    <vehicle id="8754" depart="45.52">
        <route edges="e24_e e24_cw"/>
    </vehicle>
    <vehicle id="8763" depart="45.57">
        <route edges="e25_w E0"/>
    </vehicle>
    <vehicle id="8779" depart="45.65">
        <route edges="e34_main_e e34_side_cn"/>
    </vehicle>
    <vehicle id="8821" depart="45.87">
        <route edges="e14_w e14_cs"/>
    </vehicle>
    <vehicle id="8910" depart="46.33">
        <route edges="e35_side_n e35_side_cs"/>
    </vehicle>
    <vehicle id="8914" depart="46.35">
        <route edges="e14_s e14_ce"/>
    </vehicle>
    <vehicle id="8917" depart="46.37">
        <route edges="e21_n e21_ce"/>
    </vehicle>
    <vehicle id="8980" depart="46.70">
        <route edges="e13_w e13_ce"/>
    </vehicle>
    <vehicle id="9090" depart="47.27">
        <route edges="e41_n e41_ce"/>
    </vehicle>
    <vehicle id="9113" depart="47.39">
        <route edges="e35_side_n e35_main_cw"/>
    </vehicle>
    <vehicle id="9125" depart="47.45">
        <route edges="e25_w e25_w.89 e25_cn"/>
    </vehicle>
    <vehicle id="9230" depart="48.00">
        <route edges="e21_s e21_ce"/>
    </vehicle>
    <vehicle id="9250" depart="48.10">
        <route edges="e23_n e23_cw"/>
    </vehicle>
    <vehicle id="9277" depart="48.24">
        <route edges="e25_w E0"/>
    </vehicle>
    <vehicle id="9294" depart="48.33">
        <route edges="e32_side_s e32_side_cn"/>
    </vehicle>
    <vehicle id="9322" depart="48.47">