<?xml version="1.0" encoding="UTF-8"?>

<!-- generated on 2026-03-11 13:21:02.937050 by Eclipse SUMO randomTrips.py UNKNOWN
<configuration>
    <net-file value="mega_catalogue_v2.net.xml"/>
    <output-trip-file value="test_random.rou.xml"/>
    <fringe-factor value="10"/>
    <min-distance value="50.0"/>
    <validate value="False"/>
    <period value="1.79"/>
</configuration>
-->

<routes xmlns:xsi="http://www.w3.org/2001/XMLSchema-instance" xsi:noNamespaceSchemaLocation="http://sumo.dlr.de/xsd/routes_file.xsd">
    <trip id="0" depart="0.00" from="e33_side_s" to="e11_ce"/>
    <trip id="1" depart="1.79" from="e22_n" to="e21_ce"/>
    <trip id="2" depart="3.58" from="e35_side_n" to="e34_side_cn"/>
    <trip id="3" depart="5.37" from="e43_s" to="e12_cw"/>
    <trip id="4" depart="7.16" from="e24_w" to="e11_cs"/>
    <trip id="5" depart="8.95" from="e21_n" to="e31_main_cw"/>
    <trip id="6" depart="10.74" from="e11_s" to="e15_cnw"/>
    <trip id="7" depart="12.53" from="e34_main_e" to="e32_main_ce"/>
    <trip id="8" depart="14.32" from="e21_n" to="e32_side_cs"/>
    <trip id="9" depart="16.11" from="e42_e2ce" to="E0"/>
    <trip id="10" depart="17.90" from="e41_w" to="e34_side_cs"/>
    <trip id="11" depart="19.69" from="e23_n" to="e14_cs"/>
    <trip id="12" depart="21.48" from="e45_e" to="e23_cn"/>
    <trip id="13" depart="23.27" from="e42_s2cw" to="e33_main_ce"/>
    <trip id="14" depart="25.06" from="e42_ce2cw" to="e35_side_cn"/>
    <trip id="15" depart="26.85" from="e32_main_e" to="e45_cn"/>
    <trip id="16" depart="28.64" from="e24_e" to="e32_main_ce"/>
    <trip id="17" depart="30.43" from="e42_n2ce" to="e33_main_cw"/>
    <trip id="18" depart="32.22" from="e42_w2cw" to="e32_side_cn"/>
    <trip id="19" depart="34.01" from="e35_main_e" to="e11_cw"/>
    <trip id="20" depart="35.80" from="e21_n" to="e22_cn"/>
    <trip id="21" depart="37.59" from="e12_w" to="e21_cn"/>
    <trip id="22" depart="39.38" from="e13_s" to="e22_ce"/>
    <trip id="23" depart="41.17" from="e33_side_s" to="e23_cw"/>
    <trip id="24" depart="42.96" from="e24_e" to="e15_cs"/>
    <trip id="25" depart="44.75" from="e22_e" to="e44_cs"/>
    <trip id="26" depart="46.54" from="e34_main_e" to="e33_main_cw"/>
    <trip id="27" depart="48.33" from="e15_ne" to="e35_side_cn"/>
    <trip id="28" depart="50.12" from="e14_w" to="e24_ce"/>
    <trip id="29" depart="51.91" from="e45_w" to="e33_side_cs"/>
    <trip id="30" depart="53.70" from="e32_main_w" to="e34_side_cn"/>
    <trip id="31" depart="55.49" from="e42_s2cw" to="e41_cn"/>
    <trip id="32" depart="57.28" from="e21_n" to="e11_cs"/>
    <trip id="33" depart="59.07" from="e23_e" to="e21_cw"/>
    <trip id="34" depart="60.86" from="e21_e" to="e44_cs"/>
    <trip id="35" depart="62.65" from="e43_e" to="e22_cw"/>
    <trip id="36" depart="64.44" from="e34_main_e" to="e24_cn"/>
    <trip id="37" depart="66.23" from="e43_w" to="e25_cs.35"/>
    <trip id="38" depart="68.02" from="e22_e" to="e21_cs"/>
    <trip id="39" depart="69.81" from="e32_side_n" to="e21_cw"/>
    <trip id="40" depart="71.60" from="e32_side_s" to="e43_cs"/>
    <trip id="41" depart="73.39" from="e24_s" to="e21_ce"/>
    <trip id="42" depart="75.18" from="e45_w" to="e31_main_cw"/>
    <trip id="43" depart="76.97" from="e13_e" to="e11_cw"/>
    <trip id="44" depart="78.76" from="e13_w" to="e33_side_cn"/>
    <trip id="45" depart="80.55" from="e41_s" to="e24_cw"/>
    <trip id="46" depart="82.34" from="e12_s" to="e24_ce"/>
    <trip id="47" depart="84.13" from="e45_w" to="e31_side_cs"/>
    <trip id="48" depart="85.92" from="e45_n" to="e42_cw2w"/>
    <trip id="49" depart="87.71" from="e11_e" to="e35_main_cw"/>
    <trip id="50" depart="89.50" from="e34_side_n" to="e31_side_cs"/>
    <trip id="51" depart="91.29" from="e22_e" to="e33_side_cs"/>
    <trip id="52" depart="93.08" from="e13_w" to="e25_ce"/>
    <trip id="53" depart="94.87" from="e25_s" to="e45_ce"/>
    <trip id="54" depart="96.66" from="e43_e" to="e21_cw"/>
    <trip id="55" depart="98.45" from="e31_main_w" to="e15_cne"/>
    <trip id="56" depart="100.24" from="e43_w" to="e43_ce"/>
    <trip id="57" depart="102.03" from="e22_s" to="e33_side_cs"/>
    <trip id="58" depart="103.82" from="e33_main_w" to="e14_cs"/>
    <trip id="59" depart="105.61" from="e41_e" to="e31_side_cs"/>
    <trip id="60" depart="107.40" from="e41_n" to="e31_side_cs"/>
    <trip id="61" depart="109.19" from="e11_e" to="e23_ce"/>
    <trip id="62" depart="110.98" from="e11_s" to="e44_ce"/>
    <trip id="63" depart="112.77" from="e43_n" to="e42_ce2n"/>
    <trip id="64" depart="114.56" from="e22_w" to="e12_ce"/>
    <trip id="65" depart="116.35" from="e43_n" to="e45_ce"/>
    <trip id="66" depart="118.14" from="e13_e" to="e25_w.89"/>
    <trip id="67" depart="119.93" from="e12_w" to="e41_ce"/>
    <trip id="68" depart="121.72" from="e41_n" to="e13_cw"/>
    <trip id="69" depart="123.51" from="e25_w" to="e32_main_ce"/>
    <trip id="70" depart="125.30" from="e22_e" to="e43_ce"/>
    <trip id="71" depart="127.09" from="e25_cs" to="e15_cs"/>
    <trip id="72" depart="128.88" from="e32_main_e" to="e35_side_cn"/>
    <trip id="73" depart="130.67" from="e15_s" to="e22_cw"/>
    <trip id="74" depart="132.46" from="e45_w" to="e34_main_ce"/>
    <trip id="75" depart="134.25" from="e25_n" to="e31_side_cn"/>
    <trip id="76" depart="136.04" from="e13_w" to="e21_ce"/>
    <trip id="77" depart="137.83" from="e23_n" to="e32_side_cs"/>
    <trip id="78" depart="139.62" from="e21_n" to="e21_ce"/>
    <trip id="79" depart="141.41" from="e12_w" to="e33_side_cn"/>
    <trip id="80" depart="143.20" from="e21_n" to="e43_cs"/>
    <trip id="81" depart="144.99" from="e42_w2cw" to="e12_cs"/>
    <trip id="82" depart="146.78" from="e21_s" to="e34_main_cw"/>
    <trip id="83" depart="148.57" from="e21_e" to="e13_cw"/>
    <trip id="84" depart="150.36" from="e44_w" to="e32_side_cn"/>
    <trip id="85" depart="152.15" from="e25_w" to="e41_cs"/>
    <trip id="86" depart="153.94" from="e42_ce2cw" to="e15_cnw"/>
    <trip id="87" depart="155.73" from="e13_s" to="e25_ce"/>
    <trip id="88" depart="157.52" from="e25_cs" to="e25_cs.35"/>
    <trip id="89" depart="159.31" from="e35_side_n" to="e34_main_cw"/>
    <trip id="90" depart="161.10" from="e45_s" to="e13_ce"/>
    <trip id="91" depart="162.89" from="e24_s" to="e23_cn"/>
    <trip id="92" depart="164.68" from="e42_w2cw" to="e21_cs"/>
    <trip id="93" depart="166.47" from="e15_nw" to="e25_cn"/>
    <trip id="94" depart="168.26" from="e24_w" to="e22_ce"/>
    <trip id="95" depart="170.05" from="e21_w" to="e44_ce"/>
    <trip id="96" depart="171.84" from="e25_n" to="e42_cw2w"/>
    <trip id="97" depart="173.63" from="e32_main_w" to="e11_cw"/>
    <trip id="98" depart="175.42" from="e45_w" to="e42_ce2n"/>
    <trip id="99" depart="177.21" from="e45_n" to="e44_ce"/>
    <trip id="100" depart="179.00" from="e42_s2cw" to="e14_cw"/>
    <trip id="101" depart="180.79" from="e31_main_e" to="e15_cs"/>
    <trip id="102" depart="182.58" from="e24_s" to="e12_ce"/>
    <trip id="103" depart="184.37" from="e24_e" to="e45_cs"/>
    <trip id="104" depart="186.16" from="e22_e" to="e41_cs"/>
    <trip id="105" depart="187.95" from="e25_s" to="e24_cw"/>
    <trip id="106" depart="189.74" from="e45_e" to="e45_cw"/>
    <trip id="107" depart="191.53" from="e32_main_w" to="e35_main_cw"/>
    <trip id="108" depart="193.32" from="e14_w" to="e22_cs"/>
    <trip id="109" depart="195.11" from="e45_n" to="e32_side_cn"/>
    <trip id="110" depart="196.90" from="e32_main_e" to="e35_side_cs"/>
    <trip id="111" depart="198.69" from="e12_s" to="e32_side_cs"/>
    <trip id="112" depart="200.48" from="e31_main_w" to="e42_cw2w"/>
    <trip id="113" depart="202.27" from="e14_w" to="e45_cn"/>
    <trip id="114" depart="204.06" from="e12_w" to="e15_cne"/>
    <trip id="115" depart="205.85" from="e33_main_e" to="e34_side_cn"/>
    <trip id="116" depart="207.64" from="e21_s" to="e13_cs"/>
    <trip id="117" depart="209.43" from="e43_n" to="e21_cs"/>
    <trip id="118" depart="211.22" from="e33_main_e" to="e33_main_cw"/>
    <trip id="119" depart="213.01" from="e24_w" to="e32_side_cs"/>
    <trip id="120" depart="214.80" from="e31_side_s" to="e44_cs"/>
    <trip id="121" depart="216.59" from="e15_s" to="e35_main_cw"/>
    <trip id="122" depart="218.38" from="e21_s" to="e24_cn"/>
    <trip id="123" depart="220.17" from="e34_side_n" to="e22_cs"/>
    <trip id="124" depart="221.96" from="e23_e" to="e35_side_cs"/>
    <trip id="125" depart="223.75" from="e12_w" to="e25_cs"/>
    <trip id="126" depart="225.54" from="e12_w" to="e15_cs"/>
    <trip id="127" depart="227.33" from="e22_e" to="e44_cs"/>
    <trip id="128" depart="229.12" from="e24_e" to="e14_cs"/>
    <trip id="129" depart="230.91" from="e42_n2ce" to="e35_main_ce"/>
    <trip id="130" depart="232.70" from="e33_main_w" to="e45_cw"/>
    <trip id="131" depart="234.49" from="e34_main_e" to="E0"/>
    <trip id="132" depart="236.28" from="e42_e2ce" to="e22_cs"/>
    <trip id="133" depart="238.07" from="e34_main_w" to="e44_cs"/>
    <trip id="134" depart="239.86" from="e14_e" to="e13_cs"/>
    <trip id="135" depart="241.65" from="e13_s" to="e32_main_ce"/>
    <trip id="136" depart="243.44" from="e22_e" to="e33_main_ce"/>
    <trip id="137" depart="245.23" from="e35_main_w" to="e15_cs"/>
    <trip id="138" depart="247.02" from="e33_side_s" to="e21_cw"/>
    <trip id="139" depart="248.81" from="e31_main_e" to="e43_cs"/>
    <trip id="140" depart="250.60" from="e42_s2cw" to="e12_cw"/>
    <trip id="141" depart="252.39" from="e25_cs" to="e22_ce"/>
    <trip id="142" depart="254.18" from="e11_e" to="e41_cn"/>
    <trip id="143" depart="255.97" from="e33_side_s" to="e21_cw"/>
    <trip id="144" depart="257.76" from="e35_side_s" to="e32_main_ce"/>
    <trip id="145" depart="259.55" from="e25_e" to="E0"/>
    <trip id="146" depart="261.34" from="e12_w" to="e43_cn"/>
    <trip id="147" depart="263.13" from="e43_s" to="e32_main_ce"/>
    <trip id="148" depart="264.92" from="e42_n2ce" to="e32_side_cs"/>
    <trip id="149" depart="266.71" from="e14_s" to="e13_cw"/>
    <trip id="150" depart="268.50" from="e22_w" to="e43_cs"/>
    <trip id="151" depart="270.29" from="e41_w" to="e42_cw2w"/>
    <trip id="152" depart="272.08" from="e43_s" to="e15_cs"/>
    <trip id="153" depart="273.87" from="e21_w" to="e13_ce"/>
    <trip id="154" depart="275.66" from="e41_s" to="e43_cn"/>
    <trip id="155" depart="277.45" from="e24_s" to="e33_main_cw"/>
    <trip id="156" depart="279.24" from="e14_w" to="e44_ce"/>
    <trip id="157" depart="281.03" from="e43_e" to="e45_cs"/>
    <trip id="158" depart="282.82" from="e42_e2ce" to="e43_cn"/>
    <trip id="159" depart="284.61" from="e11_s" to="e35_side_cn"/>
    <trip id="160" depart="286.40" from="e23_n" to="e44_ce"/>
    <trip id="161" depart="288.19" from="e41_w" to="e42_cw2w"/>
    <trip id="162" depart="289.98" from="e42_e2ce" to="e21_cw"/>
    <trip id="163" depart="291.77" from="e41_s" to="e13_cs"/>
    <trip id="164" depart="293.56" from="e43_e" to="e42_cw2w"/>
    <trip id="165" depart="295.35" from="e21_n" to="e42_ce2e"/>
    <trip id="166" depart="297.14" from="e25_s" to="e22_cs"/>
    <trip id="167" depart="298.93" from="e41_w" to="e21_ce"/>
    <trip id="168" depart="300.72" from="e11_s" to="e15_cnw"/>
    <trip id="169" depart="302.51" from="e23_n" to="e42_cw2w"/>
    <trip id="170" depart="304.30" from="e45_n" to="e22_ce"/>
    <trip id="171" depart="306.09" from="e33_side_s" to="e24_cn"/>
    <trip id="172" depart="307.88" from="e45_s" to="e31_side_cs"/>
    <trip id="173" depart="309.67" from="e44_w" to="e13_cs"/>
    <trip id="174" depart="311.46" from="e45_n" to="e15_cne"/>
    <trip id="175" depart="313.25" from="e45_n" to="e21_cw"/>
    <trip id="176" depart="315.04" from="e13_s" to="e25_ce"/>
    <trip id="177" depart="316.83" from="e35_side_n" to="e22_cw"/>
    <trip id="178" depart="318.62" from="e33_main_w" to="e31_main_cw"/>
    <trip id="179" depart="320.41" from="e24_n" to="e32_side_cn"/>
    <trip id="180" depart="322.20" from="e21_w" to="e35_main_ce"/>
    <trip id="181" depart="323.99" from="e11_e" to="e44_ce"/>
    <trip id="182" depart="325.78" from="e32_main_e" to="e35_main_cw"/>
    <trip id="183" depart="327.57" from="e35_side_s" to="e34_main_cw"/>
    <trip id="184" depart="329.36" from="e23_w" to="e12_cs"/>
    <trip id="185" depart="331.15" from="e34_main_w" to="e23_ce"/>
    <trip id="186" depart="332.94" from="e23_e" to="e42_cw2s"/>
    <trip id="187" depart="334.73" from="e35_main_w" to="e22_cs"/>
    <trip id="188" depart="336.52" from="e22_w" to="e24_cs"/>
    <trip id="189" depart="338.31" from="e24_s" to="e22_cn"/>
    <trip id="190" depart="340.10" from="e14_e" to="e24_cw"/>
    <trip id="191" depart="341.89" from="e44_w" to="e34_side_cn"/>
    <trip id="192" depart="343.68" from="e43_s" to="e33_main_cw"/>
    <trip id="193" depart="345.47" from="e22_w" to="e32_main_ce"/>
    <trip id="194" depart="347.26" from="e11_e" to="e22_cn"/>
    <trip id="195" depart="349.05" from="e25_e" to="e32_side_cn"/>
    <trip id="196" depart="350.84" from="e34_main_e" to="e25_cs.35"/>
    <trip id="197" depart="352.63" from="e25_n" to="e15_cs"/>
    <trip id="198" depart="354.42" from="e25_w" to="e43_cs"/>
    <trip id="199" depart="356.21" from="e41_w" to="e14_cw"/>
    <trip id="200" depart="358.00" from="e13_e" to="e31_side_cn"/>
    <trip id="201" depart="359.79" from="e33_side_s" to="e23_ce"/>
    <trip id="202" depart="361.58" from="e42_e2ce" to="e35_side_cs"/>
    <trip id="203" depart="363.37" from="e34_side_n" to="e21_ce"/>
    <trip id="204" depart="365.16" from="e15_s" to="e11_ce"/>
    <trip id="205" depart="366.95" from="e21_s" to="e25_cw"/>
    <trip id="206" depart="368.74" from="e42_s2cw" to="e12_cs"/>
    <trip id="207" depart="370.53" from="e24_w" to="e33_side_cn"/>
    <trip id="208" depart="372.32" from="e15_s" to="e34_side_cs"/>
    <trip id="209" depart="374.11" from="e31_main_w" to="e21_cs"/>
    <trip id="210" depart="375.90" from="e34_main_e" to="E0"/>
    <trip id="211" depart="377.69" from="e35_side_s" to="e41_cn"/>
    <trip id="212" depart="379.48" from="e13_s" to="e24_cw"/>
    <trip id="213" depart="381.27" from="e15_ne" to="e45_ce"/>
    <trip id="214" depart="383.06" from="e31_side_n" to="e11_cw"/>
    <trip id="215" depart="384.85" from="e21_w" to="e42_cw2s"/>
    <trip id="216" depart="386.64" from="e25_s" to="e41_cw"/>
    <trip id="217" depart="388.43" from="e34_main_w" to="e45_cw"/>
    <trip id="218" depart="390.22" from="e33_main_e" to="e45_ce"/>
    <trip id="219" depart="392.01" from="e43_s" to="e33_main_cw"/>
    <trip id="220" depart="393.80" from="e35_main_w" to="e31_main_cw"/>
    <trip id="221" depart="395.59" from="e42_n2ce" to="e32_main_ce"/>
    <trip id="222" depart="397.38" from="e43_s" to="e35_side_cs"/>
    <trip id="223" depart="399.17" from="e25_w" to="e21_cw"/>
    <trip id="224" depart="400.96" from="e21_w" to="e33_side_cs"/>
    <trip id="225" depart="402.75" from="e41_n" to="e31_side_cn"/>
    <trip id="226" depart="404.54" from="e33_side_n" to="e22_ce"/>
    <trip id="227" depart="406.33" from="e12_w" to="e22_cn"/>
    <trip id="228" depart="408.12" from="e22_e" to="e22_cw"/>
    <trip id="229" depart="409.91" from="e32_main_e" to="e14_ce"/>
    <trip id="230" depart="411.70" from="e21_n" to="e34_side_cs"/>
    <trip id="231" depart="413.49" from="e35_main_e" to="e12_ce"/>
    <trip id="232" depart="415.28" from="e24_s" to="e32_main_ce"/>
    <trip id="233" depart="417.07" from="e24_w" to="e15_cs"/>
    <trip id="234" depart="418.86" from="e24_w" to="e43_cs"/>
    <trip id="235" depart="420.65" from="e32_side_s" to="e34_side_cs"/>
    <trip id="236" depart="422.44" from="e42_w2cw" to="e41_ce"/>
    <trip id="237" depart="424.23" from="e24_e" to="E0"/>
    <trip id="238" depart="426.02" from="e23_s" to="e35_side_cs"/>
    <trip id="239" depart="427.81" from="e42_w2cw" to="e45_ce"/>
    <trip id="240" depart="429.60" from="e24_w" to="e35_side_cs"/>
    <trip id="241" depart="431.39" from="e32_main_e" to="e33_main_ce"/>
    <trip id="242" depart="433.18" from="e21_n" to="e21_ce"/>
    <trip id="243" depart="434.97" from="e25_e" to="e11_cs"/>
    <trip id="244" depart="436.76" from="e23_n" to="e34_side_cn"/>
    <trip id="245" depart="438.55" from="e24_s" to="e14_cw"/>
    <trip id="246" depart="440.34" from="e25_w" to="e13_cw"/>
    <trip id="247" depart="442.13" from="e33_side_n" to="e11_cs"/>
    <trip id="248" depart="443.92" from="e24_n" to="e32_main_cw"/>
    <trip id="249" depart="445.71" from="e11_s" to="e33_side_cs"/>
    <trip id="250" depart="447.50" from="e14_e" to="e25_cs.35"/>
    <trip id="251" depart="449.29" from="e12_e" to="e24_ce"/>
    <trip id="252" depart="451.08" from="e21_e" to="e23_ce"/>
    <trip id="253" depart="452.87" from="e41_e" to="e24_ce"/>
    <trip id="254" depart="454.66" from="e35_side_s" to="e42_ce2n"/>
    <trip id="255" depart="456.45" from="e21_w" to="e12_cw"/>
    <trip id="256" depart="458.24" from="e11_s" to="e31_side_cs"/>
    <trip id="257" depart="460.03" from="e45_w" to="e23_cs"/>
    <trip id="258" depart="461.82" from="e34_main_e" to="e41_cn"/>
    <trip id="259" depart="463.61" from="e34_main_e" to="e35_side_cs"/>
    <trip id="260" depart="465.40" from="e45_e" to="e15_cnw"/>
    <trip id="261" depart="467.19" from="e11_s" to="e14_cs"/>
    <trip id="262" depart="468.98" from="e14_e" to="e34_main_cw"/>
    <trip id="263" depart="470.77" from="e32_side_n" to="e21_ce"/>
    <trip id="264" depart="472.56" from="e35_main_e" to="e41_ce"/>
    <trip id="265" depart="474.35" from="e15_ne" to="e33_main_ce"/>
    <trip id="266" depart="476.14" from="e35_side_s" to="e13_cs"/>
    <trip id="267" depart="477.93" from="e42_e2ce" to="e45_cn"/>
    <trip id="268" depart="479.72" from="e13_s" to="e11_ce"/>
    <trip id="269" depart="481.51" from="e22_w" to="e34_side_cn"/>
    <trip id="270" depart="483.30" from="e45_e" to="e24_cn"/>
    <trip id="271" depart="485.09" from="e35_main_w" to="e12_cs"/>
    <trip id="272" depart="486.88" from="e34_side_s" to="e33_side_cn"/>
    <trip id="273" depart="488.67" from="e13_s" to="e41_cn"/>
    <trip id="274" depart="490.46" from="e42_w2cw" to="e33_main_ce"/>
    <trip id="275" depart="492.25" from="e13_w" to="e45_cs"/>
    <trip id="276" depart="494.04" from="e41_s" to="e23_cn"/>
    <trip id="277" depart="495.83" from="e25_e" to="e23_cw"/>
    <trip id="278" depart="497.62" from="e31_main_w" to="e23_cn"/>
    <trip id="279" depart="499.41" from="e42_s2cw" to="e42_ce2e"/>
    <trip id="280" depart="501.20" from="e13_s" to="e45_cn"/>
    <trip id="281" depart="502.99" from="e33_side_s" to="e42_ce2n"/>
    <trip id="282" depart="504.78" from="e35_main_e" to="e25_ce"/>
    <trip id="283" depart="506.57" from="e35_side_n" to="e45_cn"/>
    <trip id="284" depart="508.36" from="e22_e" to="e41_cw"/>
    <trip id="285" depart="510.15" from="e32_main_e" to="e25_cw"/>
    <trip id="286" depart="511.94" from="e25_e" to="e35_side_cn"/>
    <trip id="287" depart="513.73" from="e22_e" to="e42_cw2s"/>
    <trip id="288" depart="515.52" from="e42_n2ce" to="e12_cw"/>
    <trip id="289" depart="517.31" from="e43_n" to="e21_cs"/>
    <trip id="290" depart="519.10" from="e25_w" to="e33_main_cw"/>
    <trip id="291" depart="520.89" from="e24_e" to="e11_cs"/>
    <trip id="292" depart="522.68" from="e42_w2cw" to="e15_cne"/>
    <trip id="293" depart="524.47" from="e21_e" to="e41_cw"/>
    <trip id="294" depart="526.26" from="e23_n" to="e43_cn"/>
    <trip id="295" depart="528.05" from="e35_main_e" to="e22_ce"/>
    <trip id="296" depart="529.84" from="e11_e" to="e45_ce"/>
    <trip id="297" depart="531.63" from="e13_e" to="e35_main_cw"/>
    <trip id="298" depart="533.42" from="e31_main_e" to="e41_ce"/>
    <trip id="299" depart="535.21" from="e34_side_s" to="e33_side_cs"/>
    <trip id="300" depart="537.00" from="e31_main_e" to="e41_cs"/>
    <trip id="301" depart="538.79" from="e13_e" to="e21_ce"/>
    <trip id="302" depart="540.58" from="e34_side_s" to="e22_cs"/>
    <trip id="303" depart="542.37" from="e32_side_s" to="e25_cw"/>
    <trip id="304" depart="544.16" from="e31_side_s" to="e24_cw"/>
    <trip id="305" depart="545.95" from="e35_side_s" to="e23_ce"/>
    <trip id="306" depart="547.74" from="e35_main_e" to="e22_ce"/>
    <trip id="307" depart="549.53" from="e21_w" to="e13_cs"/>
    <trip id="308" depart="551.32" from="e15_s" to="e13_cs"/>
    <trip id="309" depart="553.11" from="e32_main_e" to="e41_ce"/>
    <trip id="310" depart="554.90" from="e15_nw" to="e21_ce"/>
    <trip id="311" depart="556.69" from="e31_main_e" to="e35_main_cw"/>
    <trip id="312" depart="558.48" from="e45_s" to="e31_side_cn"/>
    <trip id="313" depart="560.27" from="e22_n" to="e13_ce"/>
    <trip id="314" depart="562.06" from="e15_s" to="e21_ce"/>
    <trip id="315" depart="563.85" from="e15_nw" to="e11_ce"/>
    <trip id="316" depart="565.64" from="e32_main_e" to="e22_ce"/>
    <trip id="317" depart="567.43" from="e45_s" to="e32_main_ce"/>
    <trip id="318" depart="569.22" from="e34_side_s" to="e13_cw"/>
    <trip id="319" depart="571.01" from="e43_e" to="e31_main_ce"/>
    <trip id="320" depart="572.80" from="e43_e" to="e32_side_cn"/>
    <trip id="321" depart="574.59" from="e25_w" to="e25_ce"/>
    <trip id="322" depart="576.38" from="e15_nw" to="e11_cw"/>
    <trip id="323" depart="578.17" from="e44_w" to="e25_cw"/>
    <trip id="324" depart="579.96" from="e42_e2ce" to="e24_cn"/>
    <trip id="325" depart="581.75" from="e12_w" to="e33_side_cn"/>
    <trip id="326" depart="583.54" from="e12_e" to="e14_cs"/>
    <trip id="327" depart="585.33" from="e32_side_n" to="e22_cs"/>
    <trip id="328" depart="587.12" from="e45_w" to="e13_cs"/>
    <trip id="329" depart="588.91" from="e41_e" to="e33_main_ce"/>
    <trip id="330" depart="590.70" from="e41_s" to="e21_ce"/>
    <trip id="331" depart="592.49" from="e31_side_s" to="e25_cn"/>
    <trip id="332" depart="594.28" from="e25_n" to="e42_cw2w"/>
    <trip id="333" depart="596.07" from="e45_w" to="e22_cs"/>
    <trip id="334" depart="597.86" from="e33_side_n" to="e33_main_cw"/>
    <trip id="335" depart="599.65" from="e35_side_s" to="e45_ce"/>
    <trip id="336" depart="601.44" from="e21_e" to="e15_cs"/>
    <trip id="337" depart="603.23" from="e34_main_w" to="e14_cs"/>
    <trip id="338" depart="605.02" from="e15_ne" to="e12_cs"/>
    <trip id="339" depart="606.81" from="e11_e" to="e25_cn"/>
    <trip id="340" depart="608.60" from="e33_main_e" to="e22_cn"/>
    <trip id="341" depart="610.39" from="e21_n" to="e35_main_ce"/>
    <trip id="342" depart="612.18" from="e35_main_e" to="e25_cn"/>
    <trip id="343" depart="613.97" from="e34_side_s" to="e44_ce"/>
    <trip id="344" depart="615.76" from="e41_s" to="e33_side_cn"/>
    <trip id="345" depart="617.55" from="e34_main_w" to="e44_cs"/>
    <trip id="346" depart="619.34" from="e25_e" to="e32_main_ce"/>
    <trip id="347" depart="621.13" from="e34_main_e" to="e43_cw"/>
    <trip id="348" depart="622.92" from="e42_n2ce" to="e12_cs"/>
    <trip id="349" depart="624.71" from="e15_ne" to="e22_cs"/>
    <trip id="350" depart="626.50" from="e35_side_s" to="e32_side_cn"/>
    <trip id="351" depart="628.29" from="e22_s" to="e13_cw"/>
    <trip id="352" depart="630.08" from="e44_w" to="e31_main_cw"/>
    <trip id="353" depart="631.87" from="e31_main_w" to="e12_cs"/>
    <trip id="354" depart="633.66" from="e11_w" to="e25_ce"/>
    <trip id="355" depart="635.45" from="e23_e" to="e21_cs"/>
    <trip id="356" depart="637.24" from="e13_e" to="e45_cn"/>
    <trip id="357" depart="639.03" from="e42_n2ce" to="e32_side_cn"/>
    <trip id="358" depart="640.82" from="e45_e" to="e45_cw"/>
    <trip id="359" depart="642.61" from="e34_side_n" to="e22_ce"/>
    <trip id="360" depart="644.40" from="e11_w" to="e41_ce"/>
    <trip id="361" depart="646.19" from="e25_w" to="e34_main_ce"/>
    <trip id="362" depart="647.98" from="e43_w" to="e15_cne"/>
    <trip id="363" depart="649.77" from="e32_side_s" to="e33_side_cs"/>
    <trip id="364" depart="651.56" from="e31_main_e" to="e12_cw"/>
    <trip id="365" depart="653.35" from="e23_s" to="e23_ce"/>
    <trip id="366" depart="655.14" from="e34_main_w" to="e42_cw2w"/>
    <trip id="367" depart="656.93" from="e23_n" to="e34_side_cs"/>
    <trip id="368" depart="658.72" from="e22_s" to="e44_cs"/>
    <trip id="369" depart="660.51" from="e42_e2ce" to="e32_main_ce"/>
    <trip id="370" depart="662.30" from="e25_s" to="e22_cw"/>
    <trip id="371" depart="664.09" from="e23_e" to="e45_cn"/>
    <trip id="372" depart="665.88" from="e24_s" to="e31_side_cn"/>
    <trip id="373" depart="667.67" from="e45_w" to="e34_main_ce"/>
    <trip id="374" depart="669.46" from="e32_main_e" to="e24_cs"/>
    <trip id="375" depart="671.25" from="e15_nw" to="e23_cs"/>
    <trip id="376" depart="673.04" from="e41_e" to="e33_side_cn"/>
    <trip id="377" depart="674.83" from="e41_e" to="e15_cs"/>
    <trip id="378" depart="676.62" from="e32_main_w" to="e44_ce"/>
    <trip id="379" depart="678.41" from="e25_n" to="e34_side_cs"/>
    <trip id="380" depart="680.20" from="e13_w" to="e45_cs"/>
    <trip id="381" depart="681.99" from="e33_main_w" to="e21_cn"/>
    <trip id="382" depart="683.78" from="e14_w" to="e32_main_ce"/>
    <trip id="383" depart="685.57" from="e32_main_w" to="e12_cw"/>
    <trip id="384" depart="687.36" from="e45_w" to="e43_cw"/>
    <trip id="385" depart="689.15" from="e25_s" to="e13_cs"/>
    <trip id="386" depart="690.94" from="e42_n2ce" to="e31_main_ce"/>
    <trip id="387" depart="692.73" from="e35_main_w" to="e31_main_cw"/>
    <trip id="388" depart="694.52" from="e22_n" to="e42_ce2n"/>
    <trip id="389" depart="696.31" from="e45_s" to="e21_cs"/>
    <trip id="390" depart="698.10" from="e32_main_w" to="e24_ce"/>
    <trip id="391" depart="699.89" from="e44_n" to="e31_main_cw"/>
    <trip id="392" depart="701.68" from="e43_n" to="e42_cw2w"/>
    <trip id="393" depart="703.47" from="e22_n" to="e41_cs"/>
    <trip id="394" depart="705.26" from="e24_w" to="e44_cs"/>
    <trip id="395" depart="707.05" from="e31_side_n" to="e42_ce2e"/>
    <trip id="396" depart="708.84" from="e22_n" to="e22_cs"/>
    <trip id="397" depart="710.63" from="e32_side_s" to="e45_cw"/>
    <trip id="398" depart="712.42" from="e31_main_e" to="e14_cs"/>
    <trip id="399" depart="714.21" from="e32_main_e" to="e23_cn"/>
    <trip id="400" depart="716.00" from="e32_main_w" to="e32_main_ce"/>
    <trip id="401" depart="717.79" from="e25_s" to="e22_cw"/>
    <trip id="402" depart="719.58" from="e15_nw" to="e34_side_cs"/>
    <trip id="403" depart="721.37" from="e32_side_n" to="e21_cn"/>
    <trip id="404" depart="723.16" from="e41_n" to="e11_cw"/>
    <trip id="405" depart="724.95" from="e35_side_s" to="e35_main_ce"/>
    <trip id="406" depart="726.74" from="e42_e2ce" to="e24_ce"/>
    <trip id="407" depart="728.53" from="e34_main_w" to="e42_ce2e"/>
    <trip id="408" depart="730.32" from="e45_s" to="e31_main_ce"/>
    <trip id="409" depart="732.11" from="e11_w" to="e31_main_cw"/>
    <trip id="410" depart="733.90" from="e33_main_e" to="e43_ce"/>
    <trip id="411" depart="735.69" from="e43_e" to="e25_ce"/>
    <trip id="412" depart="737.48" from="e31_side_s" to="e25_cn"/>
    <trip id="413" depart="739.27" from="e35_main_w" to="e24_cs"/>
    <trip id="414" depart="741.06" from="e34_main_e" to="e14_cs"/>
    <trip id="415" depart="742.85" from="e25_w" to="e45_cn"/>
    <trip id="416" depart="744.64" from="e23_n" to="e34_side_cs"/>
    <trip id="417" depart="746.43" from="e34_main_e" to="e42_cw2s"/>
    <trip id="418" depart="748.22" from="e24_e" to="e22_cw"/>
    <trip id="419" depart="750.01" from="e35_main_w" to="e41_ce"/>
    <trip id="420" depart="751.80" from="e43_e" to="e11_cs"/>
    <trip id="421" depart="753.59" from="e12_w" to="e33_side_cn"/>
    <trip id="422" depart="755.38" from="e44_n" to="e45_cw"/>
    <trip id="423" depart="757.17" from="e35_side_s" to="e25_ce"/>
    <trip id="424" depart="758.96" from="e13_s" to="e33_side_cn"/>
    <trip id="425" depart="760.75" from="e43_e" to="e25_cn"/>
    <trip id="426" depart="762.54" from="e34_side_s" to="e43_cs"/>
    <trip id="427" depart="764.33" from="e12_e" to="e41_cw"/>
    <trip id="428" depart="766.12" from="e22_s" to="e23_cw"/>
    <trip id="429" depart="767.91" from="e14_s" to="e31_side_cs"/>
    <trip id="430" depart="769.70" from="e32_side_n" to="e41_cs"/>
    <trip id="431" depart="771.49" from="e15_ne" to="e12_cs"/>
    <trip id="432" depart="773.28" from="e43_e" to="e33_main_cw"/>
    <trip id="433" depart="775.07" from="e21_s" to="e43_cw"/>
    <trip id="434" depart="776.86" from="e14_s" to="e25_cs.35"/>
    <trip id="435" depart="778.65" from="e21_w" to="e21_cs"/>
    <trip id="436" depart="780.44" from="e11_e" to="e41_cw"/>
    <trip id="437" depart="782.23" from="e43_s" to="e34_side_cn"/>
    <trip id="438" depart="784.02" from="e14_w" to="e25_ce"/>
    <trip id="439" depart="785.81" from="e23_s" to="e32_side_cs"/>
    <trip id="440" depart="787.60" from="e33_side_s" to="e24_cw"/>
    <trip id="441" depart="789.39" from="e21_w" to="e42_cw2s"/>
    <trip id="442" depart="791.18" from="e15_s" to="e24_ce"/>
    <trip id="443" depart="792.97" from="e31_main_e" to="e21_cn"/>
    <trip id="444" depart="794.76" from="e45_w" to="e22_cn"/>
    <trip id="445" depart="796.55" from="e45_s" to="e34_main_ce"/>
    <trip id="446" depart="798.34" from="e22_n" to="e32_main_cw"/>
    <trip id="447" depart="800.13" from="e34_side_s" to="e35_side_cs"/>
    <trip id="448" depart="801.92" from="e12_e" to="e33_main_ce"/>
    <trip id="449" depart="803.71" from="e31_main_w" to="e43_cs"/>
    <trip id="450" depart="805.50" from="e22_s" to="e41_cw"/>
    <trip id="451" depart="807.29" from="e33_main_w" to="e23_cs"/>
    <trip id="452" depart="809.08" from="e33_side_s" to="e33_main_cw"/>
    <trip id="453" depart="810.87" from="e34_side_n" to="e35_main_cw"/>