<?xml version='1.0' encoding='utf-8'?>
<additional>
  <tlLogic id="R1C1_C" type="static" programID="0" offset="0">
    <phase duration="5.0" state="GGGrrr" />
    <phase duration="5.0" state="GrGrGr" />
    <phase duration="5.0" state="GrrrGG" />
    <phase duration="5.0" state="rrGGGr" />
    <phase duration="3.0" state="GyGrrr" />
    <phase duration="2.0" state="GrGrur" />
    <phase duration="3.0" state="Gyyrrr" />
    <phase duration="1.0" state="Grrrrr" />
    <phase duration="2.0" state="Grrruu" />
    <phase duration="3.0" state="yyGrrr" />
    <phase duration="2.0" state="rrGuur" />
    <phase duration="2.0" state="GrGryr" />
    <phase duration="1.0" state="GuGryr" />
    <phase duration="1.0" state="GuGrrr" />
    <phase duration="3.0" state="GryrGr" />
    <phase duration="2.0" state="GrrrGu" />
    <phase duration="1.0" state="yrGrGr" />
    <phase duration="2.0" state="yrGuGr" />
    <phase duration="2.0" state="Grrryy" />
    <phase duration="1.0" state="Guuryy" />
    <phase duration="1.0" state="Guurrr" />
    <phase duration="2.0" state="GrrrGy" />
    <phase duration="1.0" state="GrurGy" />
    <phase duration="1.0" state="GrurGr" />
    <phase duration="2.0" state="yrrrGy" />
    <phase duration="1.0" state="yruuGy" />
    <phase duration="1.0" state="rruuGr" />
    <phase duration="3.0" state="rrGyyr" />
    <phase duration="1.0" state="rrGrrr" />
    <phase duration="2.0" state="uuGrrr" />
    <phase duration="3.0" state="rrGyGr" />
    <phase duration="1.0" state="rrGrGr" />
    <phase duration="2.0" state="urGrGr" />
    <phase duration="3.0" state="rryyGr" />
    <phase duration="1.0" state="rrrrGr" />
    <phase duration="2.0" state="urrrGu" />
  </tlLogic>
  <tlLogic id="R1C2_C" type="static" programID="0" offset="0">
    <phase duration="5.0" state="GGGrrr" />
    <phase duration="5.0" state="GrGrGr" />
    <phase duration="5.0" state="GrrrGG" />
    <phase duration="5.0" state="rrGGGr" />
    <phase duration="3.0" state="GyGrrr" />
    <phase duration="1.0" state="GrGrrr" />
    <phase duration="2.0" state="GrGrur" />
    <phase duration="3.0" state="Gyyrrr" />
    <phase duration="1.0" state="Grrrrr" />
    <phase duration="2.0" state="Grrruu" />
    <phase duration="3.0" state="yyGrrr" />
    <phase duration="1.0" state="rrGrrr" />
    <phase duration="2.0" state="rrGuur" />
    <phase duration="1.0" state="GrGryr" />
    <phase duration="2.0" state="GuGryr" />
    <phase duration="3.0" state="GryrGr" />
    <phase duration="1.0" state="GrrrGr" />
    <phase duration="2.0" state="GrrrGu" />
    <phase duration="2.0" state="yrGrGr" />
    <phase duration="1.0" state="yrGuGr" />
    <phase duration="1.0" state="rrGuGr" />
    <phase duration="1.0" state="Grrryy" />
    <phase duration="2.0" state="Guuryy" />
    <phase duration="1.0" state="GrrrGy" />
    <phase duration="2.0" state="GrurGy" />
    <phase duration="2.0" state="yrrrGy" />
    <phase duration="1.0" state="yruuGy" />
    <phase duration="1.0" state="rruuGr" />
    <phase duration="3.0" state="rrGyyr" />
    <phase duration="1.0" state="rrGrrr" />
    <phase duration="2.0" state="uuGrrr" />
    <phase duration="3.0" state="rrGyGr" />
    <phase duration="1.0" state="rrGrGr" />
    <phase duration="2.0" state="urGrGr" />
    <phase duration="3.0" state="rryyGr" />
    <phase duration="1.0" state="rrrrGr" />
    <phase duration="2.0" state="urrrGu" />
  </tlLogic>
  <tlLogic id="R1C3_C" type="static" programID="0" offset="0">
    <phase duration="5.0" state="GGGGrrGrG" />
    <phase duration="5.0" state="GGGrrrGGG" />
    <phase duration="5.0" state="GGGGGrGrr" />
    <phase duration="5.0" state="GrrGGGGrr" />
    <phase duration="3.0" state="GGGyrrGrG" />
    <phase duration="2.0" state="GGGrrrGuG" />
    <phase duration="2.0" state="GGGGrrGry" />
    <phase duration="1.0" state="GGGGurGry" />
    <phase duration="1.0" state="GGGGurGrr" />
    <phase duration="3.0" state="GyyGrrGry" />
    <phase duration="2.0" state="GrrGuuGrr" />
    <phase duration="2.0" state="GGGrrrGyG" />
    <phase duration="1.0" state="GGGurrGyG" />
    <phase duration="1.0" state="GGGurrGrG" />
    <phase duration="2.0" state="GGGrrrGyy" />
    <phase duration="1.0" state="GGGuurGyy" />
    <phase duration="1.0" state="GGGuurGrr" />
    <phase duration="3.0" state="GyyrrrGyy" />
    <phase duration="2.0" state="GrruuuGrr" />
    <phase duration="3.0" state="GGGGyrGrr" />
    <phase duration="2.0" state="GGGGrrGru" />
    <phase duration="3.0" state="GGGyyrGrr" />
    <phase duration="2.0" state="GGGrrrGuu" />
    <phase duration="3.0" state="GyyGGrGrr" />
    <phase duration="2.0" state="GrrGGuGrr" />
    <phase duration="3.0" state="GrrGyyGrr" />
    <phase duration="1.0" state="GrrGrrGrr" />
    <phase duration="2.0" state="GuuGrrGru" />
    <phase duration="3.0" state="GrryyyGrr" />
    <phase duration="1.0" state="GrrrrrGrr" />
    <phase duration="2.0" state="GuurrrGuu" />
    <phase duration="3.0" state="GrrGGyGrr" />
    <phase duration="1.0" state="GrrGGrGrr" />
    <phase duration="2.0" state="GuuGGrGrr" />
  </tlLogic>
  <tlLogic id="R1C4_C" type="static" programID="0" offset="0">
    <phase duration="5.0" state="GGGrrrrrrGGGG" />
    <phase duration="5.0" state="GGGGGGrrrGrrr" />
    <phase duration="5.0" state="rrrGGGGGGGrrr" />
    <phase duration="3.0" state="GGGrrrrrrGyyy" />
    <phase duration="2.0" state="GGGuuurrrGrrr" />
    <phase duration="3.0" state="yyyrrrrrrGyyy" />
    <phase duration="2.0" state="rrruuuuuuGrrr" />
    <phase duration="3.0" state="GGGyyyrrrGrrr" />
    <phase duration="1.0" state="GGGrrrrrrGrrr" />
    <phase duration="2.0" state="GGGrrrrrrGuuu" />
    <phase duration="2.0" state="yyyGGGrrrGrrr" />
    <phase duration="1.0" state="yyyGGGuuuGrrr" />
    <phase duration="1.0" state="rrrGGGuuuGrrr" />
    <phase duration="3.0" state="rrryyyyyyGrrr" />
    <phase duration="2.0" state="rrrrrrrrrGrrr" />
    <phase duration="2.0" state="uuurrrrrrGuuu" />
    <phase duration="3.0" state="rrrGGGyyyGrrr" />
    <phase duration="2.0" state="rrrGGGrrrGrrr" />
    <phase duration="2.0" state="uuuGGGrrrGrrr" />
  </tlLogic>
  <tlLogic id="R1C5_C" type="static" programID="0" offset="0">
    <phase duration="5.0" state="GrrGrGGGr" />
    <phase duration="5.0" state="rrrGGGGGr" />
    <phase duration="5.0" state="GrrrrrGGG" />
    <phase duration="5.0" state="GGGGrrrrr" />
    <phase duration="5.0" state="GrGGrrGrr" />
    <phase duration="2.0" state="yrrGrGGGr" />
    <phase duration="1.0" state="yrrGuGGGr" />
    <phase duration="1.0" state="rrrGuGGGr" />
    <phase duration="2.0" state="GrryryGGr" />
    <phase duration="1.0" state="GrryryGGu" />
    <phase duration="1.0" state="GrrrrrGGu" />
    <phase duration="2.0" state="GrrGryyyr" />
    <phase duration="1.0" state="GuuGryyyr" />
    <phase duration="1.0" state="GuuGrrrrr" />
    <phase duration="2.0" state="GrrGryGyr" />
    <phase duration="1.0" state="GruGryGyr" />
    <phase duration="1.0" state="GruGrrGrr" />
    <phase duration="2.0" state="rrrGyGGGr" />
    <phase duration="1.0" state="urrGyGGGr" />
    <phase duration="1.0" state="urrGrGGGr" />
    <phase duration="2.0" state="rrryyyGGr" />
    <phase duration="1.0" state="urryyyGGu" />
    <phase duration="1.0" state="urrrrrGGu" />
    <phase duration="3.0" state="rrrGyyyyr" />
    <phase duration="2.0" state="uuuGrrrrr" />
    <phase duration="3.0" state="rrrGyyGyr" />
    <phase duration="2.0" state="uruGrrGrr" />
    <phase duration="3.0" state="GrrrrrGGy" />
    <phase duration="1.0" state="GrrrrrGGr" />
    <phase duration="2.0" state="GrruruGGr" />
    <phase duration="3.0" state="yrrrrrGGy" />
    <phase duration="1.0" state="rrrrrrGGr" />
    <phase duration="2.0" state="rrruuuGGr" />
    <phase duration="3.0" state="Grrrrryyy" />
    <phase duration="1.0" state="Grrrrrrrr" />
    <phase duration="2.0" state="Guuurrrrr" />
    <phase duration="3.0" state="GrrrrrGyy" />
    <phase duration="1.0" state="GrrrrrGrr" />
    <phase duration="2.0" state="GruurrGrr" />
    <phase duration="3.0" state="GyyGrrrrr" />
    <phase duration="2.0" state="GrrGruuur" />
    <phase duration="3.0" state="yyyGrrrrr" />
    <phase duration="2.0" state="rrrGuuuur" />
    <phase duration="3.0" state="Gyyyrrrrr" />
    <phase duration="2.0" state="Grrrrruuu" />
    <phase duration="3.0" state="GyGGrrrrr" />
    <phase duration="2.0" state="GrGGrrurr" />
    <phase duration="3.0" state="GryGrrGrr" />
    <phase duration="2.0" state="GrrGruGur" />
    <phase duration="3.0" state="yryGrrGrr" />
    <phase duration="2.0" state="rrrGuuGur" />
    <phase duration="3.0" state="GryyrrGrr" />
    <phase duration="2.0" state="GrrrrrGuu" />
    <phase duration="1.0" state="GrGGrryrr" />
    <phase duration="2.0" state="GuGGrryrr" />
  </tlLogic>
  <tlLogic id="R2C1_C" type="static" programID="0" offset="0">
    <phase duration="5.0" state="GGGGrrGrGrrr" />
    <phase duration="5.0" state="GrrGrGrrrGGG" />
    <phase duration="5.0" state="GrGGrrGrGGrr" />
    <phase duration="5.0" state="GGGrrrGGGrrr" />
    <phase duration="5.0" state="GrGrrrGGGGrr" />
    <phase duration="5.0" state="rrrGGGrrrGGG" />
    <phase duration="5.0" state="GrrGrrGrrGrG" />
    <phase duration="5.0" state="rrrGGrGrrGrG" />
    <phase duration="3.0" state="GyyGrryryrrr" />
    <phase duration="1.0" state="GrrGrrrrrrrr" />
    <phase duration="2.0" state="GrrGrurrruuu" />
    <phase duration="2.0" state="GyGGrrGrGrrr" />
    <phase duration="1.0" state="GyGGrrGrGurr" />
    <phase duration="1.0" state="GrGGrrGrGurr" />
    <phase duration="3.0" state="GGGyrrGrGrrr" />
    <phase duration="2.0" state="GGGrrrGuGrrr" />
    <phase duration="3.0" state="GyGyrrGrGrrr" />
    <phase duration="2.0" state="GrGrrrGuGurr" />
    <phase duration="3.0" state="yyyGrryryrrr" />
    <phase duration="1.0" state="rrrGrrrrrrrr" />
    <phase duration="2.0" state="rrrGuurrruuu" />
    <phase duration="3.0" state="GyyGrrGryrrr" />
    <phase duration="2.0" state="GrrGrrGrruru" />
    <phase duration="3.0" state="yyyGrrGryrrr" />
    <phase duration="1.0" state="rrrGrrGrrrrr" />
    <phase duration="2.0" state="rrrGurGrruru" />
    <phase duration="3.0" state="GrrGryrrryyy" />
    <phase duration="1.0" state="GrrGrrrrrrrr" />
    <phase duration="2.0" state="GuuGrrururrr" />
    <phase duration="3.0" state="GrrGryrrrGyy" />
    <phase duration="2.0" state="GruGrruruGrr" />
    <phase duration="3.0" state="Grryryrrryyy" />
    <phase duration="1.0" state="Grrrrrrrrrrr" />
    <phase duration="2.0" state="Guurrruuurrr" />
    <phase duration="3.0" state="GrryryrrrGyy" />
    <phase duration="1.0" state="GrrrrrrrrGrr" />
    <phase duration="2.0" state="GrurrruuuGrr" />
    <phase duration="3.0" state="yrrGrGrrrGGG" />
    <phase duration="2.0" state="rrrGuGrrrGGG" />
    <phase duration="2.0" state="GrrGryrrrGyG" />
    <phase duration="1.0" state="GrrGryurrGyG" />
    <phase duration="1.0" state="GrrGrrurrGrG" />
    <phase duration="3.0" state="yrrGryrrrGyG" />
    <phase duration="2.0" state="rrrGururrGrG" />
    <phase duration="3.0" state="GrGGrrGrGyrr" />
    <phase duration="2.0" state="GuGGrrGrGrrr" />
    <phase duration="3.0" state="GryGrryryGrr" />
    <phase duration="1.0" state="GrrGrrrrrGrr" />
    <phase duration="2.0" state="GrrGrurrrGuu" />
    <phase duration="3.0" state="GrGyrrGrGyrr" />
    <phase duration="2.0" state="GuGrrrGuGrrr" />
    <phase duration="3.0" state="GrGyrrGrGGrr" />
    <phase duration="2.0" state="GrGrrrGuGGrr" />
    <phase duration="3.0" state="yryGrryryGrr" />
    <phase duration="1.0" state="rrrGrrrrrGrr" />
    <phase duration="2.0" state="rrrGuurrrGuu" />
    <phase duration="3.0" state="GryGrrGryGrr" />
    <phase duration="2.0" state="GrrGrrGrrGru" />
    <phase duration="3.0" state="yryGrrGryGrr" />
    <phase duration="1.0" state="rrrGrrGrrGrr" />
    <phase duration="2.0" state="rrrGurGrrGru" />
    <phase duration="2.0" state="GGGrrrGyGrrr" />
    <phase duration="1.0" state="GGGurrGyGrrr" />
    <phase duration="1.0" state="GGGurrGrGrrr" />
    <phase duration="3.0" state="Gyyrrryyyrrr" />
    <phase duration="1.0" state="Grrrrrrrrrrr" />
    <phase duration="2.0" state="Grrururrruuu" />
    <phase duration="2.0" state="GyGrrrGyGrrr" />
    <phase duration="1.0" state="GyGurrGyGurr" />
    <phase duration="1.0" state="GrGurrGrGurr" />
    <phase duration="2.0" state="GyGrrrGGGrrr" />
    <phase duration="1.0" state="GyGrrrGGGurr" />
    <phase duration="1.0" state="GrGrrrGGGurr" />
    <phase duration="3.0" state="yyyrrryyyrrr" />
    <phase duration="1.0" state="rrrrrrrrrrrr" />
    <phase duration="2.0" state="rrruuurrruuu" />
    <phase duration="3.0" state="GyyrrrGyyrrr" />
    <phase duration="2.0" state="GrrurrGrruru" />
    <phase duration="3.0" state="yyyrrrGyyrrr" />
    <phase duration="1.0" state="rrrrrrGrrrrr" />
    <phase duration="2.0" state="rrruurGrruru" />
    <phase duration="3.0" state="GrGrrrGyGyrr" />
    <phase duration="2.0" state="GuGurrGrGrrr" />
    <phase duration="3.0" state="GryrrryyyGrr" />
    <phase duration="1.0" state="GrrrrrrrrGrr" />
    <phase duration="2.0" state="GrrururrrGuu" />
    <phase duration="2.0" state="GrGrrrGyGGrr" />
    <phase duration="1.0" state="GrGurrGyGGrr" />
    <phase duration="1.0" state="GrGurrGrGGrr" />
    <phase duration="3.0" state="GrGrrrGGGyrr" />
    <phase duration="2.0" state="GuGrrrGGGrrr" />
    <phase duration="3.0" state="yryrrryyyGrr" />
    <phase duration="1.0" state="rrrrrrrrrGrr" />
    <phase duration="2.0" state="rrruuurrrGuu" />
    <phase duration="3.0" state="GryrrrGyyGrr" />
    <phase duration="2.0" state="GrrurrGrrGru" />
    <phase duration="3.0" state="yryrrrGyyGrr" />
    <phase duration="1.0" state="rrrrrrGrrGrr" />
    <phase duration="2.0" state="rrruurGrrGru" />
    <phase duration="3.0" state="rrrGyyrrryyy" />
    <phase duration="1.0" state="rrrGrrrrrrrr" />
    <phase duration="2.0" state="uuuGrrururrr" />
    <phase duration="2.0" state="rrrGyGrrrGGG" />
    <phase duration="1.0" state="urrGyGrrrGGG" />
    <phase duration="1.0" state="urrGrGrrrGGG" />
    <phase duration="3.0" state="rrrGyyrrrGyy" />
    <phase duration="2.0" state="uruGrruruGrr" />
    <phase duration="3.0" state="rrryyyrrryyy" />
    <phase duration="1.0" state="rrrrrrrrrrrr" />
    <phase duration="2.0" state="uuurrruuurrr" />
    <phase duration="3.0" state="rrryyyrrrGyy" />
    <phase duration="1.0" state="rrrrrrrrrGrr" />
    <phase duration="2.0" state="ururrruuuGrr" />
    <phase duration="2.0" state="rrrGyyrrrGyG" />
    <phase duration="1.0" state="urrGyyurrGyG" />
    <phase duration="1.0" state="urrGrrurrGrG" />
    <phase duration="2.0" state="rrrGGyrrrGyG" />
    <phase duration="1.0" state="rrrGGyurrGyG" />
    <phase duration="1.0" state="rrrGGrurrGrG" />
    <phase duration="3.0" state="GrrGrrGrryry" />
    <phase duration="2.0" state="GuuGrrGrurrr" />
    <phase duration="3.0" state="GrrGrryrrGrG" />
    <phase duration="2.0" state="GrrGrurrrGuG" />
    <phase duration="3.0" state="GrrGrrGrrGry" />
    <phase duration="2.0" state="GruGrrGruGrr" />
    <phase duration="3.0" state="GrryrrGrryry" />
    <phase duration="1.0" state="GrrrrrGrrrrr" />
    <phase duration="2.0" state="GuurrrGuurrr" />
    <phase duration="3.0" state="GrryrrGrrGry" />
    <phase duration="1.0" state="GrrrrrGrrGrr" />
    <phase duration="2.0" state="GrurrrGuuGrr" />
    <phase duration="3.0" state="yrrGrryrrGrG" />
    <phase duration="2.0" state="rrrGuurrrGuG" />
    <phase duration="3.0" state="yrrGrrGrrGrG" />
    <phase duration="2.0" state="rrrGurGrrGrG" />
    <phase duration="3.0" state="rrrGyrGrryry" />
    <phase duration="2.0" state="uuuGrrGrurrr" />
    <phase duration="3.0" state="rrrGyryrrGrG" />
    <phase duration="2.0" state="urrGrurrrGuG" />
    <phase duration="3.0" state="rrrGyrGrrGry" />
    <phase duration="2.0" state="uruGrrGruGrr" />
    <phase duration="3.0" state="rrryyrGrryry" />
    <phase duration="1.0" state="rrrrrrGrrrrr" />
    <phase duration="2.0" state="uuurrrGuurrr" />
    <phase duration="3.0" state="rrryyrGrrGry" />
    <phase duration="1.0" state="rrrrrrGrrGrr" />
    <phase duration="2.0" state="ururrrGuuGrr" />
    <phase duration="3.0" state="rrrGGryrrGrG" />
    <phase duration="2.0" state="rrrGGurrrGuG" />
    <phase duration="2.0" state="rrrGyrGrrGrG" />
    <phase duration="1.0" state="urrGyrGrrGrG" />
    <phase duration="1.0" state="urrGrrGrrGrG" />
  </tlLogic>
  <tlLogic id="R2C2_C" type="static" programID="0" offset="0">
    <phase duration="5.0" state="GrrrrrrrrGGG" />
    <phase duration="5.0" state="GrrrrrGrrGrG" />
    <phase duration="5.0" state="GrrrrGGrrrrG" />
    <phase duration="5.0" state="GGGGrrrrrrrr" />
    <phase duration="5.0" state="GrGGrrrrrGrr" />
    <phase duration="5.0" state="GrrGrrrrrGGr" />
    <phase duration="5.0" state="GGrGrrGrrrrr" />
    <phase duration="5.0" state="GrrGrGGrrrrr" />
    <phase duration="5.0" state="GrrGrrGrrGrr" />
    <phase duration="5.0" state="GGrrrrGGrrrr" />
    <phase duration="5.0" state="GrrrrrGGrGrr" />
    <phase duration="5.0" state="rrGGrrrrGGrr" />
    <phase duration="5.0" state="rrrGrrGrGGrr" />
    <phase duration="5.0" state="rrrrrrGGGGrr" />
    <phase duration="5.0" state="rrrGGrrrrGGr" />
    <phase duration="5.0" state="rrrGGrGrrGrr" />
    <phase duration="5.0" state="rrrGGGGrrrrr" />
    <phase duration="2.0" state="GrrrrrrrrGyG" />
    <phase duration="1.0" state="GrrrrrurrGyG" />
    <phase duration="1.0" state="GrrrrrurrGrG" />
    <phase duration="2.0" state="GrrrrrrrryyG" />
    <phase duration="1.0" state="GrrrruurryyG" />
    <phase duration="1.0" state="GrrrruurrrrG" />
    <phase duration="3.0" state="Grrrrrrrryyy" />
    <phase duration="1.0" state="Grrrrrrrrrrr" />
    <phase duration="2.0" state="Guuurrrrrrrr" />
    <phase duration="3.0" state="GrrrrrrrrGyy" />
    <phase duration="1.0" state="GrrrrrrrrGrr" />
    <phase duration="2.0" state="GruurrrrrGrr" />
    <phase duration="3.0" state="GrrrrrrrrGGy" />
    <phase duration="1.0" state="GrrrrrrrrGGr" />
    <phase duration="2.0" state="GrrurrrrrGGr" />
    <phase duration="3.0" state="Grrrrrrrryyy" />
    <phase duration="1.0" state="Grrrrrrrrrrr" />
    <phase duration="2.0" state="Gururrurrrrr" />
    <phase duration="3.0" state="Grrrrrrrryyy" />
    <phase duration="1.0" state="Grrrrrrrrrrr" />
    <phase duration="2.0" state="Grruruurrrrr" />
    <phase duration="3.0" state="GrrrrrrrrGyy" />
    <phase duration="1.0" state="GrrrrrrrrGrr" />
    <phase duration="2.0" state="GrrurrurrGrr" />
    <phase duration="3.0" state="Grrrrrrrryyy" />
    <phase duration="1.0" state="Grrrrrrrrrrr" />
    <phase duration="2.0" state="Gurrrruurrrr" />
    <phase duration="3.0" state="GrrrrrrrrGyy" />
    <phase duration="1.0" state="GrrrrrrrrGrr" />
    <phase duration="2.0" state="GrrrrruurGrr" />
    <phase duration="3.0" state="yrrrrrrrrGyy" />
    <phase duration="1.0" state="rrrrrrrrrGrr" />
    <phase duration="2.0" state="rruurrrruGrr" />
    <phase duration="3.0" state="yrrrrrrrrGyy" />
    <phase duration="1.0" state="rrrrrrrrrGrr" />
    <phase duration="2.0" state="rrrurruruGrr" />
    <phase duration="3.0" state="yrrrrrrrrGyy" />
    <phase duration="1.0" state="rrrrrrrrrGrr" />
    <phase duration="2.0" state="rrrrrruuuGrr" />
    <phase duration="3.0" state="yrrrrrrrrGGy" />
    <phase duration="1.0" state="rrrrrrrrrGGr" />
    <phase duration="2.0" state="rrruurrrrGGr" />
    <phase duration="3.0" state="yrrrrrrrrGyy" />
    <phase duration="1.0" state="rrrrrrrrrGrr" />
    <phase duration="2.0" state="rrruururrGrr" />
    <phase duration="3.0" state="yrrrrrrrryyy" />
    <phase duration="1.0" state="rrrrrrrrrrrr" />
    <phase duration="2.0" state="rrruuuurrrrr" />
    <phase duration="3.0" state="GrrrrryrrGrG" />
    <phase duration="2.0" state="GrrrrrrrrGuG" />
    <phase duration="1.0" state="GrrrrrGrryrG" />
    <phase duration="2.0" state="GrrrruGrryrG" />
    <phase duration="3.0" state="Grrrrryrryry" />
    <phase duration="1.0" state="Grrrrrrrrrrr" />
    <phase duration="2.0" state="Guuurrrrrrrr" />
    <phase duration="3.0" state="GrrrrryrrGry" />
    <phase duration="1.0" state="GrrrrrrrrGrr" />
    <phase duration="2.0" state="GruurrrrrGrr" />
    <phase duration="3.0" state="GrrrrryrrGry" />
    <phase duration="1.0" state="GrrrrrrrrGrr" />
    <phase duration="2.0" state="GrrurrrrrGur" />
    <phase duration="3.0" state="GrrrrrGrryry" />
    <phase duration="1.0" state="GrrrrrGrrrrr" />
    <phase duration="2.0" state="GururrGrrrrr" />
    <phase duration="3.0" state="GrrrrrGrryry" />
    <phase duration="1.0" state="GrrrrrGrrrrr" />
    <phase duration="2.0" state="GrruruGrrrrr" />
    <phase duration="3.0" state="GrrrrrGrrGry" />
    <phase duration="1.0" state="GrrrrrGrrGrr" />
    <phase duration="2.0" state="GrrurrGrrGrr" />
    <phase duration="3.0" state="GrrrrrGrryry" />
    <phase duration="1.0" state="GrrrrrGrrrrr" />
    <phase duration="2.0" state="GurrrrGurrrr" />
    <phase duration="3.0" state="GrrrrrGrrGry" />
    <phase duration="1.0" state="GrrrrrGrrGrr" />
    <phase duration="2.0" state="GrrrrrGurGrr" />
    <phase duration="3.0" state="yrrrrryrrGry" />
    <phase duration="1.0" state="rrrrrrrrrGrr" />
    <phase duration="2.0" state="rruurrrruGrr" />
    <phase duration="3.0" state="yrrrrrGrrGry" />
    <phase duration="1.0" state="rrrrrrGrrGrr" />
    <phase duration="2.0" state="rrrurrGruGrr" />
    <phase duration="3.0" state="yrrrrrGrrGry" />
    <phase duration="1.0" state="rrrrrrGrrGrr" />
    <phase duration="2.0" state="rrrrrrGuuGrr" />
    <phase duration="3.0" state="yrrrrryrrGry" />
    <phase duration="1.0" state="rrrrrrrrrGrr" />
    <phase duration="2.0" state="rrruurrrrGur" />
    <phase duration="3.0" state="yrrrrrGrrGry" />
    <phase duration="1.0" state="rrrrrrGrrGrr" />
    <phase duration="2.0" state="rrruurGrrGrr" />
    <phase duration="3.0" state="yrrrrrGrryry" />
    <phase duration="1.0" state="rrrrrrGrrrrr" />
    <phase duration="2.0" state="rrruuuGrrrrr" />
    <phase duration="3.0" state="GrrrryyrrrrG" />
    <phase duration="1.0" state="GrrrrrrrrrrG" />
    <phase duration="2.0" state="GrrrrrrrruuG" />
    <phase duration="3.0" state="GrrrryGrrrrG" />
    <phase duration="1.0" state="GrrrrrGrrrrG" />
    <phase duration="2.0" state="GrrrrrGrrurG" />
    <phase duration="3.0" state="Grrrryyrrrry" />
    <phase duration="1.0" state="Grrrrrrrrrrr" />
    <phase duration="2.0" state="Guuurrrrrrrr" />
    <phase duration="3.0" state="Grrrryyrrrry" />
    <phase duration="1.0" state="Grrrrrrrrrrr" />
    <phase duration="2.0" state="Gruurrrrrurr" />
    <phase duration="3.0" state="Grrrryyrrrry" />
    <phase duration="1.0" state="Grrrrrrrrrrr" />
    <phase duration="2.0" state="Grrurrrrruur" />
    <phase duration="3.0" state="GrrrryGrrrry" />
    <phase duration="1.0" state="GrrrrrGrrrrr" />
    <phase duration="2.0" state="GururrGrrrrr" />
    <phase duration="3.0" state="GrrrrGGrrrry" />
    <phase duration="1.0" state="GrrrrGGrrrrr" />
    <phase duration="2.0" state="GrrurGGrrrrr" />
    <phase duration="3.0" state="GrrrryGrrrry" />
    <phase duration="1.0" state="GrrrrrGrrrrr" />
    <phase duration="2.0" state="GrrurrGrrurr" />
    <phase duration="3.0" state="GrrrryGrrrry" />
    <phase duration="1.0" state="GrrrrrGrrrrr" />
    <phase duration="2.0" state="GurrrrGurrrr" />
    <phase duration="3.0" state="GrrrryGrrrry" />
    <phase duration="1.0" state="GrrrrrGrrrrr" />
    <phase duration="2.0" state="GrrrrrGururr" />
    <phase duration="3.0" state="yrrrryyrrrry" />
    <phase duration="1.0" state="rrrrrrrrrrrr" />
    <phase duration="2.0" state="rruurrrruurr" />
    <phase duration="3.0" state="yrrrryGrrrry" />
    <phase duration="1.0" state="rrrrrrGrrrrr" />
    <phase duration="2.0" state="rrrurrGruurr" />
    <phase duration="3.0" state="yrrrryGrrrry" />
    <phase duration="1.0" state="rrrrrrGrrrrr" />
    <phase duration="2.0" state="rrrrrrGuuurr" />
    <phase duration="3.0" state="yrrrryyrrrry" />
    <phase duration="1.0" state="rrrrrrrrrrrr" />
    <phase duration="2.0" state="rrruurrrruur" />
    <phase duration="3.0" state="yrrrryGrrrry" />
    <phase duration="1.0" state="rrrrrrGrrrrr" />
    <phase duration="2.0" state="rrruurGrrurr" />
    <phase duration="3.0" state="yrrrrGGrrrry" />
    <phase duration="1.0" state="rrrrrGGrrrrr" />
    <phase duration="2.0" state="rrruuGGrrrrr" />
    <phase duration="3.0" state="Gyyyrrrrrrrr" />
    <phase duration="1.0" state="Grrrrrrrrrrr" />
    <phase duration="2.0" state="Grrrrrrrruuu" />
    <phase duration="3.0" state="Gyyyrrrrrrrr" />
    <phase duration="1.0" state="Grrrrrrrrrrr" />
    <phase duration="2.0" state="Grrrrrurruru" />
    <phase duration="3.0" state="Gyyyrrrrrrrr" />
    <phase duration="1.0" state="Grrrrrrrrrrr" />
    <phase duration="2.0" state="Grrrruurrrru" />
    <phase duration="2.0" state="GyGGrrrrrrrr" />
    <phase duration="1.0" state="GyGGrrrrrurr" />
    <phase duration="1.0" state="GrGGrrrrrurr" />
    <phase duration="3.0" state="GyyGrrrrrrrr" />
    <phase duration="1.0" state="GrrGrrrrrrrr" />
    <phase duration="2.0" state="GrrGrrrrruur" />
    <phase duration="3.0" state="GGyGrrrrrrrr" />
    <phase duration="1.0" state="GGrGrrrrrrrr" />
    <phase duration="2.0" state="GGrGrrurrrrr" />
    <phase duration="3.0" state="GyyGrrrrrrrr" />
    <phase duration="1.0" state="GrrGrrrrrrrr" />
    <phase duration="2.0" state="GrrGruurrrrr" />
    <phase duration="3.0" state="GyyGrrrrrrrr" />
    <phase duration="1.0" state="GrrGrrrrrrrr" />
    <phase duration="2.0" state="GrrGrrurrurr" />
    <phase duration="3.0" state="GGyyrrrrrrrr" />
    <phase duration="1.0" state="GGrrrrrrrrrr" />
    <phase duration="2.0" state="GGrrrruurrrr" />
    <phase duration="3.0" state="Gyyyrrrrrrrr" />
    <phase duration="1.0" state="Grrrrrrrrrrr" />
    <phase duration="2.0" state="Grrrrruururr" />
    <phase duration="2.0" state="yyGGrrrrrrrr" />
    <phase duration="1.0" state="yyGGrrrruurr" />
    <phase duration="1.0" state="rrGGrrrruurr" />
    <phase duration="3.0" state="yyyGrrrrrrrr" />
    <phase duration="1.0" state="rrrGrrrrrrrr" />
    <phase duration="2.0" state="rrrGrruruurr" />
    <phase duration="3.0" state="yyyyrrrrrrrr" />
    <phase duration="1.0" state="rrrrrrrrrrrr" />
    <phase duration="2.0" state="rrrrrruuuurr" />
    <phase duration="3.0" state="yyyGrrrrrrrr" />
    <phase duration="1.0" state="rrrGrrrrrrrr" />
    <phase duration="2.0" state="rrrGurrrruur" />
    <phase duration="3.0" state="yyyGrrrrrrrr" />
    <phase duration="1.0" state="rrrGrrrrrrrr" />
    <phase duration="2.0" state="rrrGururrurr" />
    <phase duration="3.0" state="yyyGrrrrrrrr" />
    <phase duration="1.0" state="rrrGrrrrrrrr" />
    <phase duration="2.0" state="rrrGuuurrrrr" />
    <phase duration="3.0" state="GryyrrrrrGrr" />
    <phase duration="1.0" state="GrrrrrrrrGrr" />
    <phase duration="2.0" state="GrrrrrrrrGuu" />
    <phase duration="3.0" state="GryyrrrrrGrr" />
    <phase duration="1.0" state="GrrrrrrrrGrr" />
    <phase duration="2.0" state="GrrrrrurrGru" />
    <phase duration="3.0" state="Gryyrrrrryrr" />
    <phase duration="1.0" state="Grrrrrrrrrrr" />
    <phase duration="2.0" state="Grrrruurrrru" />
    <phase duration="3.0" state="GrGGrrrrryrr" />
    <phase duration="2.0" state="GuGGrrrrrrrr" />
    <phase duration="3.0" state="GryGrrrrrGrr" />
    <phase duration="1.0" state="GrrGrrrrrGrr" />
    <phase duration="2.0" state="GrrGrrrrrGur" />
    <phase duration="3.0" state="GryGrrrrryrr" />
    <phase duration="1.0" state="GrrGrrrrrrrr" />
    <phase duration="2.0" state="GurGrrurrrrr" />
    <phase duration="3.0" state="GryGrrrrryrr" />
    <phase duration="1.0" state="GrrGrrrrrrrr" />
    <phase duration="2.0" state="GrrGruurrrrr" />
    <phase duration="3.0" state="GryGrrrrrGrr" />
    <phase duration="1.0" state="GrrGrrrrrGrr" />
    <phase duration="2.0" state="GrrGrrurrGrr" />
    <phase duration="3.0" state="Gryyrrrrryrr" />
    <phase duration="1.0" state="Grrrrrrrrrrr" />
    <phase duration="2.0" state="Gurrrruurrrr" />
    <phase duration="3.0" state="GryyrrrrrGrr" />
    <phase duration="1.0" state="GrrrrrrrrGrr" />
    <phase duration="2.0" state="GrrrrruurGrr" />
    <phase duration="1.0" state="yrGGrrrrrGrr" />
    <phase duration="2.0" state="yrGGrrrruGrr" />
    <phase duration="3.0" state="yryGrrrrrGrr" />
    <phase duration="1.0" state="rrrGrrrrrGrr" />
    <phase duration="2.0" state="rrrGrruruGrr" />
    <phase duration="3.0" state="yryyrrrrrGrr" />
    <phase duration="1.0" state="rrrrrrrrrGrr" />
    <phase duration="2.0" state="rrrrrruuuGrr" />
    <phase duration="3.0" state="yryGrrrrrGrr" />
    <phase duration="1.0" state="rrrGrrrrrGrr" />
    <phase duration="2.0" state="rrrGurrrrGur" />
    <phase duration="3.0" state="yryGrrrrrGrr" />
    <phase duration="1.0" state="rrrGrrrrrGrr" />
    <phase duration="2.0" state="rrrGururrGrr" />
    <phase duration="3.0" state="yryGrrrrryrr" />
    <phase duration="1.0" state="rrrGrrrrrrrr" />
    <phase duration="2.0" state="rrrGuuurrrrr" />
    <phase duration="1.0" state="GrryrrrrrGGr" />
    <phase duration="2.0" state="GrryrrrrrGGu" />
    <phase duration="2.0" state="GrryrrrrrGyr" />
    <phase duration="1.0" state="GrryrrurrGyu" />
    <phase duration="1.0" state="GrrrrrurrGru" />
    <phase duration="2.0" state="Grryrrrrryyr" />
    <phase duration="1.0" state="Grryruurryyu" />
    <phase duration="1.0" state="Grrrruurrrru" />
    <phase duration="3.0" state="GrrGrrrrryyr" />
    <phase duration="2.0" state="GuuGrrrrrrrr" />
    <phase duration="1.0" state="GrrGrrrrrGyr" />
    <phase duration="2.0" state="GruGrrrrrGyr" />
    <phase duration="3.0" state="GrrGrrrrryyr" />
    <phase duration="2.0" state="GurGrrurrrrr" />
    <phase duration="2.0" state="GrrGrrrrryyr" />
    <phase duration="1.0" state="GrrGruurryyr" />