<?xml version='1.0' encoding='utf-8'?>
<additional>
  <tlLogic id="R1C1_C" type="static" programID="0" offset="0">
    <phase duration="5.0" state="GGGrrr" />
    <phase duration="5.0" state="GrGrGr" />
    <phase duration="5.0" state="GrrrGG" />
    <phase duration="5.0" state="rrGGGr" />
    <phase duration="3.0" state="GyGrrr" />
    <phase duration="2.0" state="GrGrur" />
    <phase duration="3.0" state="Gyyrrr" />
    <phase duration="1.0" state="Grrrrr" />
    <phase duration="2.0" state="Grrruu" />
    <phase duration="3.0" state="yyGrrr" />
    <phase duration="2.0" state="rrGuur" />
    <phase duration="2.0" state="GrGryr" />
    <phase duration="1.0" state="GuGryr" />
    <phase duration="1.0" state="GuGrrr" />
    <phase duration="3.0" state="GryrGr" />
    <phase duration="2.0" state="GrrrGu" />
    <phase duration="1.0" state="yrGrGr" />
    <phase duration="2.0" state="yrGuGr" />
    <phase duration="2.0" state="Grrryy" />
    <phase duration="1.0" state="Guuryy" />
    <phase duration="1.0" state="Guurrr" />
    <phase duration="2.0" state="GrrrGy" />
    <phase duration="1.0" state="GrurGy" />
    <phase duration="1.0" state="GrurGr" />
    <phase duration="2.0" state="yrrrGy" />
    <phase duration="1.0" state="yruuGy" />
    <phase duration="1.0" state="rruuGr" />
    <phase duration="3.0" state="rrGyyr" />
    <phase duration="1.0" state="rrGrrr" />
    <phase duration="2.0" state="uuGrrr" />
    <phase duration="3.0" state="rrGyGr" />
    <phase duration="1.0" state="rrGrGr" />
    <phase duration="2.0" state="urGrGr" />
    <phase duration="3.0" state="rryyGr" />
    <phase duration="1.0" state="rrrrGr" />
    <phase duration="2.0" state="urrrGu" />
  </tlLogic>
  <tlLogic id="R1C2_C" type="static" programID="0" offset="0">
    <phase duration="5.0" state="GGGrrr" />
    <phase duration="5.0" state="GrGrGr" />
    <phase duration="5.0" state="GrrrGG" />
    <phase duration="5.0" state="rrGGGr" />
    <phase duration="3.0" state="GyGrrr" />
    <phase duration="1.0" state="GrGrrr" />
    <phase duration="2.0" state="GrGrur" />
    <phase duration="3.0" state="Gyyrrr" />
    <phase duration="1.0" state="Grrrrr" />
    <phase duration="2.0" state="Grrruu" />
    <phase duration="3.0" state="yyGrrr" />
    <phase duration="1.0" state="rrGrrr" />
    <phase duration="2.0" state="rrGuur" />
    <phase duration="1.0" state="GrGryr" />
    <phase duration="2.0" state="GuGryr" />
    <phase duration="3.0" state="GryrGr" />
    <phase duration="1.0" state="GrrrGr" />
    <phase duration="2.0" state="GrrrGu" />
    <phase duration="2.0" state="yrGrGr" />
    <phase duration="1.0" state="yrGuGr" />
    <phase duration="1.0" state="rrGuGr" />
    <phase duration="1.0" state="Grrryy" />
    <phase duration="2.0" state="Guuryy" />
    <phase duration="1.0" state="GrrrGy" />
    <phase duration="2.0" state="GrurGy" />
    <phase duration="2.0" state="yrrrGy" />
    <phase duration="1.0" state="yruuGy" />
    <phase duration="1.0" state="rruuGr" />
    <phase duration="3.0" state="rrGyyr" />
    <phase duration="1.0" state="rrGrrr" />
    <phase duration="2.0" state="uuGrrr" />
    <phase duration="3.0" state="rrGyGr" />
    <phase duration="1.0" state="rrGrGr" />
    <phase duration="2.0" state="urGrGr" />
    <phase duration="3.0" state="rryyGr" />
    <phase duration="1.0" state="rrrrGr" />
    <phase duration="2.0" state="urrrGu" />
  </tlLogic>
  <tlLogic id="R1C3_C" type="static" programID="0" offset="0">
    <phase duration="5.0" state="GGGGGrGrr" />
    <phase duration="5.0" state="GGrGrrGrG" />
    <phase duration="5.0" state="GGrrrrGGG" />
    <phase duration="5.0" state="GrrGGGGrr" />
    <phase duration="3.0" state="GGyGyrGrr" />
    <phase duration="2.0" state="GGrGrrGru" />
    <phase duration="3.0" state="GGyyyrGrr" />
    <phase duration="1.0" state="GGrrrrGrr" />
    <phase duration="2.0" state="GGrrrrGuu" />
    <phase duration="3.0" state="GyyGGrGrr" />
    <phase duration="2.0" state="GrrGGuGrr" />
    <phase duration="2.0" state="GGrGrrGry" />
    <phase duration="1.0" state="GGuGurGry" />
    <phase duration="1.0" state="GGuGurGrr" />
    <phase duration="3.0" state="GGryrrGrG" />
    <phase duration="2.0" state="GGrrrrGuG" />
    <phase duration="2.0" state="GyrGrrGry" />
    <phase duration="1.0" state="GyrGuuGry" />
    <phase duration="1.0" state="GrrGuuGrr" />
    <phase duration="2.0" state="GGrrrrGyy" />
    <phase duration="1.0" state="GGuuurGyy" />
    <phase duration="1.0" state="GGuuurGrr" />
    <phase duration="2.0" state="GGrrrrGyG" />
    <phase duration="1.0" state="GGrurrGyG" />
    <phase duration="1.0" state="GGrurrGrG" />
    <phase duration="2.0" state="GyrrrrGyy" />
    <phase duration="1.0" state="GyruuuGyy" />
    <phase duration="1.0" state="GrruuuGrr" />
    <phase duration="3.0" state="GrrGGyGrr" />
    <phase duration="1.0" state="GrrGGrGrr" />
    <phase duration="2.0" state="GuuGGrGrr" />
    <phase duration="3.0" state="GrrGyyGrr" />
    <phase duration="1.0" state="GrrGrrGrr" />
    <phase duration="2.0" state="GurGrrGru" />
    <phase duration="3.0" state="GrryyyGrr" />
    <phase duration="1.0" state="GrrrrrGrr" />
    <phase duration="2.0" state="GurrrrGuu" />
  </tlLogic>
  <tlLogic id="R1C4_C" type="static" programID="0" offset="0">
    <phase duration="5.0" state="GGGGGGGGrrrGrrr" />
    <phase duration="5.0" state="GGGrrrrrrrrGGGG" />
    <phase duration="5.0" state="GGGrrGrrrrrGrGG" />
    <phase duration="5.0" state="GGGrrGGrrrrGrrG" />
    <phase duration="5.0" state="GGrrrGGGrrGGrrr" />
    <phase duration="5.0" state="GrrrrGGGrGGGrrr" />
    <phase duration="5.0" state="rrrrrGGGGGGGrrr" />
    <phase duration="3.0" state="GGGyyyyyrrrGrrr" />
    <phase duration="2.0" state="GGGrrrrrrrrGrrr" />
    <phase duration="2.0" state="GGGrrrrrrrrGuuu" />
    <phase duration="3.0" state="GGGyyGyyrrrGrrr" />
    <phase duration="1.0" state="GGGrrGrrrrrGrrr" />
    <phase duration="2.0" state="GGGrrGrrrrrGruu" />
    <phase duration="3.0" state="GGGyyGGyrrrGrrr" />
    <phase duration="1.0" state="GGGrrGGrrrrGrrr" />
    <phase duration="2.0" state="GGGrrGGrrrrGrru" />
    <phase duration="3.0" state="GGyyyGGGrrrGrrr" />
    <phase duration="1.0" state="GGrrrGGGrrrGrrr" />
    <phase duration="2.0" state="GGrrrGGGrruGrrr" />
    <phase duration="3.0" state="GyyyyGGGrrrGrrr" />
    <phase duration="1.0" state="GrrrrGGGrrrGrrr" />
    <phase duration="2.0" state="GrrrrGGGruuGrrr" />
    <phase duration="3.0" state="yyyyyGGGrrrGrrr" />
    <phase duration="1.0" state="rrrrrGGGrrrGrrr" />
    <phase duration="2.0" state="rrrrrGGGuuuGrrr" />
    <phase duration="3.0" state="GGGrrrrrrrrGyyy" />
    <phase duration="2.0" state="GGGuuuuurrrGrrr" />
    <phase duration="3.0" state="GGGrrrrrrrrGyGG" />
    <phase duration="2.0" state="GGGrrurrrrrGrGG" />
    <phase duration="3.0" state="GGGrrrrrrrrGyyG" />
    <phase duration="2.0" state="GGGrruurrrrGrrG" />
    <phase duration="3.0" state="GGyrrrrrrrrGyyy" />
    <phase duration="2.0" state="GGrrruuurruGrrr" />
    <phase duration="3.0" state="GyyrrrrrrrrGyyy" />
    <phase duration="2.0" state="GrrrruuuruuGrrr" />
    <phase duration="3.0" state="yyyrrrrrrrrGyyy" />
    <phase duration="2.0" state="rrrrruuuuuuGrrr" />
    <phase duration="2.0" state="GGGrrGrrrrrGryy" />
    <phase duration="1.0" state="GGGuuGuurrrGryy" />
    <phase duration="1.0" state="GGGuuGuurrrGrrr" />
    <phase duration="2.0" state="GGGrryrrrrrGrGG" />
    <phase duration="1.0" state="GGGrryrrrrrGuGG" />
    <phase duration="1.0" state="GGGrrrrrrrrGuGG" />
    <phase duration="2.0" state="GGGrrGrrrrrGryG" />
    <phase duration="1.0" state="GGGrrGurrrrGryG" />
    <phase duration="1.0" state="GGGrrGurrrrGrrG" />
    <phase duration="2.0" state="GGyrrGrrrrrGryy" />
    <phase duration="1.0" state="GGyrrGuurruGryy" />
    <phase duration="1.0" state="GGrrrGuurruGrrr" />
    <phase duration="2.0" state="GyyrrGrrrrrGryy" />
    <phase duration="1.0" state="GyyrrGuuruuGryy" />
    <phase duration="1.0" state="GrrrrGuuruuGrrr" />
    <phase duration="2.0" state="yyyrrGrrrrrGryy" />
    <phase duration="1.0" state="yyyrrGuuuuuGryy" />
    <phase duration="1.0" state="rrrrrGuuuuuGrrr" />
    <phase duration="2.0" state="GGGrrGGrrrrGrry" />
    <phase duration="1.0" state="GGGuuGGurrrGrry" />
    <phase duration="1.0" state="GGGuuGGurrrGrrr" />
    <phase duration="3.0" state="GGGrryyrrrrGrrG" />
    <phase duration="2.0" state="GGGrrrrrrrrGuuG" />
    <phase duration="3.0" state="GGGrrGyrrrrGrrG" />
    <phase duration="2.0" state="GGGrrGrrrrrGruG" />
    <phase duration="2.0" state="GGyrrGGrrrrGrry" />
    <phase duration="1.0" state="GGyrrGGurruGrry" />
    <phase duration="1.0" state="GGrrrGGurruGrrr" />
    <phase duration="2.0" state="GyyrrGGrrrrGrry" />
    <phase duration="1.0" state="GyyrrGGuruuGrry" />
    <phase duration="1.0" state="GrrrrGGuruuGrrr" />
    <phase duration="2.0" state="yyyrrGGrrrrGrry" />
    <phase duration="1.0" state="yyyrrGGuuuuGrry" />
    <phase duration="1.0" state="rrrrrGGuuuuGrrr" />
    <phase duration="3.0" state="GGrrrGGGrryGrrr" />
    <phase duration="1.0" state="GGrrrGGGrrrGrrr" />
    <phase duration="2.0" state="GGuuuGGGrrrGrrr" />
    <phase duration="3.0" state="GGrrryyyrryGrrr" />
    <phase duration="1.0" state="GGrrrrrrrrrGrrr" />
    <phase duration="2.0" state="GGurrrrrrrrGuuu" />
    <phase duration="3.0" state="GGrrrGyyrryGrrr" />
    <phase duration="1.0" state="GGrrrGrrrrrGrrr" />
    <phase duration="2.0" state="GGurrGrrrrrGruu" />
    <phase duration="3.0" state="GGrrrGGyrryGrrr" />
    <phase duration="1.0" state="GGrrrGGrrrrGrrr" />
    <phase duration="2.0" state="GGurrGGrrrrGrru" />
    <phase duration="1.0" state="GyrrrGGGrrGGrrr" />
    <phase duration="2.0" state="GyrrrGGGruGGrrr" />
    <phase duration="1.0" state="yyrrrGGGrrGGrrr" />
    <phase duration="2.0" state="yyrrrGGGuuGGrrr" />
    <phase duration="3.0" state="GrrrrGGGryyGrrr" />
    <phase duration="1.0" state="GrrrrGGGrrrGrrr" />
    <phase duration="2.0" state="GuuuuGGGrrrGrrr" />
    <phase duration="3.0" state="GrrrryyyryyGrrr" />
    <phase duration="1.0" state="GrrrrrrrrrrGrrr" />
    <phase duration="2.0" state="GuurrrrrrrrGuuu" />
    <phase duration="3.0" state="GrrrrGyyryyGrrr" />
    <phase duration="1.0" state="GrrrrGrrrrrGrrr" />
    <phase duration="2.0" state="GuurrGrrrrrGruu" />
    <phase duration="3.0" state="GrrrrGGyryyGrrr" />
    <phase duration="1.0" state="GrrrrGGrrrrGrrr" />
    <phase duration="2.0" state="GuurrGGrrrrGrru" />
    <phase duration="3.0" state="GrrrrGGGryGGrrr" />
    <phase duration="1.0" state="GrrrrGGGrrGGrrr" />
    <phase duration="2.0" state="GurrrGGGrrGGrrr" />
    <phase duration="1.0" state="yrrrrGGGrGGGrrr" />
    <phase duration="2.0" state="yrrrrGGGuGGGrrr" />
    <phase duration="3.0" state="rrrrrGGGyyyGrrr" />
    <phase duration="2.0" state="rrrrrGGGrrrGrrr" />
    <phase duration="2.0" state="uuuuuGGGrrrGrrr" />
    <phase duration="3.0" state="rrrrryyyyyyGrrr" />
    <phase duration="2.0" state="rrrrrrrrrrrGrrr" />
    <phase duration="2.0" state="uuurrrrrrrrGuuu" />
    <phase duration="3.0" state="rrrrrGyyyyyGrrr" />
    <phase duration="2.0" state="rrrrrGrrrrrGrrr" />
    <phase duration="2.0" state="uuurrGrrrrrGruu" />
    <phase duration="3.0" state="rrrrrGGyyyyGrrr" />
    <phase duration="2.0" state="rrrrrGGrrrrGrrr" />
    <phase duration="2.0" state="uuurrGGrrrrGrru" />
    <phase duration="3.0" state="rrrrrGGGyyGGrrr" />
    <phase duration="2.0" state="rrrrrGGGrrGGrrr" />
    <phase duration="2.0" state="uurrrGGGrrGGrrr" />
    <phase duration="3.0" state="rrrrrGGGyGGGrrr" />
    <phase duration="2.0" state="rrrrrGGGrGGGrrr" />
    <phase duration="2.0" state="urrrrGGGrGGGrrr" />
  </tlLogic>
  <tlLogic id="R1C5_C" type="static" programID="0" offset="0">
    <phase duration="5.0" state="GrGrGGGr" />
    <phase duration="5.0" state="rrGGGGGr" />
    <phase duration="5.0" state="GGGrrGrr" />
    <phase duration="5.0" state="GrrrrGGG" />
    <phase duration="2.0" state="yrGrGGGr" />
    <phase duration="1.0" state="yrGuGGGr" />
    <phase duration="1.0" state="rrGuGGGr" />
    <phase duration="2.0" state="GrGryGyr" />
    <phase duration="1.0" state="GuGryGyr" />
    <phase duration="1.0" state="GuGrrGrr" />
    <phase duration="2.0" state="GryryGGr" />
    <phase duration="1.0" state="GryryGGu" />
    <phase duration="1.0" state="GrrrrGGu" />
    <phase duration="2.0" state="rrGyGGGr" />
    <phase duration="1.0" state="urGyGGGr" />
    <phase duration="1.0" state="urGrGGGr" />
    <phase duration="3.0" state="rrGyyGyr" />
    <phase duration="2.0" state="uuGrrGrr" />
    <phase duration="2.0" state="rryyyGGr" />
    <phase duration="1.0" state="uryyyGGu" />
    <phase duration="1.0" state="urrrrGGu" />
    <phase duration="3.0" state="GyGrrGrr" />
    <phase duration="2.0" state="GrGruGur" />
    <phase duration="3.0" state="yyGrrGrr" />
    <phase duration="2.0" state="rrGuuGur" />
    <phase duration="3.0" state="GyyrrGrr" />
    <phase duration="2.0" state="GrrrrGuu" />
    <phase duration="3.0" state="GrrrrGGy" />
    <phase duration="1.0" state="GrrrrGGr" />
    <phase duration="2.0" state="GruruGGr" />
    <phase duration="3.0" state="yrrrrGGy" />
    <phase duration="1.0" state="rrrrrGGr" />
    <phase duration="2.0" state="rruuuGGr" />
    <phase duration="3.0" state="GrrrrGyy" />
    <phase duration="1.0" state="GrrrrGrr" />
    <phase duration="2.0" state="GuurrGrr" />
  </tlLogic>
  <tlLogic id="R2C1_C" type="static" programID="0" offset="0">
    <phase duration="5.0" state="GrrrrrrrrGGG" />
    <phase duration="5.0" state="GrrrrrGrrGrG" />
    <phase duration="5.0" state="GrrrrGGrrrrG" />
    <phase duration="5.0" state="GGGGrrrrrrrr" />
    <phase duration="5.0" state="GrGGrrrrrGrr" />
    <phase duration="5.0" state="GrrGrrrrrGGr" />
    <phase duration="5.0" state="GGrGrrGrrrrr" />
    <phase duration="5.0" state="GrrGrGGrrrrr" />
    <phase duration="5.0" state="GrrGrrGrrGrr" />
    <phase duration="5.0" state="GGrrrrGGrrrr" />
    <phase duration="5.0" state="GrrrrrGGrGrr" />
    <phase duration="5.0" state="rrGGrrrrGGrr" />
    <phase duration="5.0" state="rrrGrrGrGGrr" />
    <phase duration="5.0" state="rrrrrrGGGGrr" />
    <phase duration="5.0" state="rrrGGrrrrGGr" />
    <phase duration="5.0" state="rrrGGrGrrGrr" />
    <phase duration="5.0" state="rrrGGGGrrrrr" />
    <phase duration="2.0" state="GrrrrrrrrGyG" />
    <phase duration="1.0" state="GrrrrrurrGyG" />
    <phase duration="1.0" state="GrrrrrurrGrG" />
    <phase duration="2.0" state="GrrrrrrrryyG" />
    <phase duration="1.0" state="GrrrruurryyG" />
    <phase duration="1.0" state="GrrrruurrrrG" />
    <phase duration="3.0" state="Grrrrrrrryyy" />
    <phase duration="2.0" state="Guuurrrrrrrr" />
    <phase duration="3.0" state="GrrrrrrrrGyy" />
    <phase duration="2.0" state="GruurrrrrGrr" />
    <phase duration="3.0" state="GrrrrrrrrGGy" />
    <phase duration="2.0" state="GrrurrrrrGGr" />
    <phase duration="3.0" state="Grrrrrrrryyy" />
    <phase duration="2.0" state="Gururrurrrrr" />
    <phase duration="3.0" state="Grrrrrrrryyy" />
    <phase duration="2.0" state="Grruruurrrrr" />
    <phase duration="3.0" state="GrrrrrrrrGyy" />
    <phase duration="2.0" state="GrrurrurrGrr" />
    <phase duration="3.0" state="Grrrrrrrryyy" />
    <phase duration="1.0" state="Grrrrrrrrrrr" />
    <phase duration="2.0" state="Gurrrruurrrr" />
    <phase duration="3.0" state="GrrrrrrrrGyy" />
    <phase duration="1.0" state="GrrrrrrrrGrr" />
    <phase duration="2.0" state="GrrrrruurGrr" />
    <phase duration="3.0" state="yrrrrrrrrGyy" />
    <phase duration="2.0" state="rruurrrruGrr" />
    <phase duration="3.0" state="yrrrrrrrrGyy" />
    <phase duration="2.0" state="rrrurruruGrr" />
    <phase duration="3.0" state="yrrrrrrrrGyy" />
    <phase duration="1.0" state="rrrrrrrrrGrr" />
    <phase duration="2.0" state="rrrrrruuuGrr" />
    <phase duration="3.0" state="yrrrrrrrrGGy" />
    <phase duration="1.0" state="rrrrrrrrrGGr" />
    <phase duration="2.0" state="rrruurrrrGGr" />
    <phase duration="3.0" state="yrrrrrrrrGyy" />
    <phase duration="1.0" state="rrrrrrrrrGrr" />
    <phase duration="2.0" state="rrruururrGrr" />
    <phase duration="3.0" state="yrrrrrrrryyy" />
    <phase duration="1.0" state="rrrrrrrrrrrr" />
    <phase duration="2.0" state="rrruuuurrrrr" />
    <phase duration="3.0" state="GrrrrryrrGrG" />
    <phase duration="2.0" state="GrrrrrrrrGuG" />
    <phase duration="2.0" state="GrrrrrGrryrG" />
    <phase duration="1.0" state="GrrrruGrryrG" />
    <phase duration="1.0" state="GrrrruGrrrrG" />
    <phase duration="3.0" state="Grrrrryrryry" />
    <phase duration="2.0" state="Guuurrrrrrrr" />
    <phase duration="3.0" state="GrrrrryrrGry" />
    <phase duration="2.0" state="GruurrrrrGrr" />
    <phase duration="3.0" state="GrrrrryrrGry" />
    <phase duration="2.0" state="GrrurrrrrGur" />
    <phase duration="3.0" state="GrrrrrGrryry" />
    <phase duration="2.0" state="GururrGrrrrr" />
    <phase duration="3.0" state="GrrrrrGrryry" />
    <phase duration="2.0" state="GrruruGrrrrr" />
    <phase duration="3.0" state="GrrrrrGrrGry" />
    <phase duration="2.0" state="GrrurrGrrGrr" />
    <phase duration="3.0" state="GrrrrrGrryry" />
    <phase duration="1.0" state="GrrrrrGrrrrr" />
    <phase duration="2.0" state="GurrrrGurrrr" />
    <phase duration="3.0" state="GrrrrrGrrGry" />
    <phase duration="1.0" state="GrrrrrGrrGrr" />
    <phase duration="2.0" state="GrrrrrGurGrr" />
    <phase duration="3.0" state="yrrrrryrrGry" />
    <phase duration="2.0" state="rruurrrruGrr" />
    <phase duration="3.0" state="yrrrrrGrrGry" />
    <phase duration="2.0" state="rrrurrGruGrr" />
    <phase duration="3.0" state="yrrrrrGrrGry" />
    <phase duration="1.0" state="rrrrrrGrrGrr" />
    <phase duration="2.0" state="rrrrrrGuuGrr" />
    <phase duration="3.0" state="yrrrrryrrGry" />
    <phase duration="1.0" state="rrrrrrrrrGrr" />
    <phase duration="2.0" state="rrruurrrrGur" />
    <phase duration="3.0" state="yrrrrrGrrGry" />
    <phase duration="1.0" state="rrrrrrGrrGrr" />
    <phase duration="2.0" state="rrruurGrrGrr" />
    <phase duration="3.0" state="yrrrrrGrryry" />
    <phase duration="1.0" state="rrrrrrGrrrrr" />
    <phase duration="2.0" state="rrruuuGrrrrr" />
    <phase duration="3.0" state="GrrrryyrrrrG" />
    <phase duration="1.0" state="GrrrrrrrrrrG" />
    <phase duration="2.0" state="GrrrrrrrruuG" />
    <phase duration="3.0" state="GrrrryGrrrrG" />
    <phase duration="2.0" state="GrrrrrGrrurG" />
    <phase duration="3.0" state="Grrrryyrrrry" />
    <phase duration="1.0" state="Grrrrrrrrrrr" />
    <phase duration="2.0" state="Guuurrrrrrrr" />
    <phase duration="3.0" state="Grrrryyrrrry" />
    <phase duration="2.0" state="Gruurrrrrurr" />
    <phase duration="3.0" state="Grrrryyrrrry" />
    <phase duration="1.0" state="Grrrrrrrrrrr" />
    <phase duration="2.0" state="Grrurrrrruur" />
    <phase duration="3.0" state="GrrrryGrrrry" />
    <phase duration="1.0" state="GrrrrrGrrrrr" />
    <phase duration="2.0" state="GururrGrrrrr" />
    <phase duration="3.0" state="GrrrrGGrrrry" />
    <phase duration="2.0" state="GrrurGGrrrrr" />
    <phase duration="3.0" state="GrrrryGrrrry" />
    <phase duration="2.0" state="GrrurrGrrurr" />
    <phase duration="3.0" state="GrrrryGrrrry" />
    <phase duration="1.0" state="GrrrrrGrrrrr" />
    <phase duration="2.0" state="GurrrrGurrrr" />
    <phase duration="3.0" state="GrrrryGrrrry" />
    <phase duration="1.0" state="GrrrrrGrrrrr" />
    <phase duration="2.0" state="GrrrrrGururr" />
    <phase duration="3.0" state="yrrrryyrrrry" />
    <phase duration="2.0" state="rruurrrruurr" />
    <phase duration="3.0" state="yrrrryGrrrry" />
    <phase duration="2.0" state="rrrurrGruurr" />
    <phase duration="3.0" state="yrrrryGrrrry" />
    <phase duration="1.0" state="rrrrrrGrrrrr" />
    <phase duration="2.0" state="rrrrrrGuuurr" />
    <phase duration="3.0" state="yrrrryyrrrry" />
    <phase duration="1.0" state="rrrrrrrrrrrr" />
    <phase duration="2.0" state="rrruurrrruur" />
    <phase duration="3.0" state="yrrrryGrrrry" />
    <phase duration="1.0" state="rrrrrrGrrrrr" />
    <phase duration="2.0" state="rrruurGrrurr" />
    <phase duration="3.0" state="yrrrrGGrrrry" />
    <phase duration="1.0" state="rrrrrGGrrrrr" />
    <phase duration="2.0" state="rrruuGGrrrrr" />
    <phase duration="3.0" state="Gyyyrrrrrrrr" />
    <phase duration="1.0" state="Grrrrrrrrrrr" />
    <phase duration="2.0" state="Grrrrrrrruuu" />
    <phase duration="3.0" state="Gyyyrrrrrrrr" />
    <phase duration="2.0" state="Grrrrrurruru" />
    <phase duration="3.0" state="Gyyyrrrrrrrr" />
    <phase duration="2.0" state="Grrrruurrrru" />
    <phase duration="2.0" state="GyGGrrrrrrrr" />
    <phase duration="1.0" state="GyGGrrrrrurr" />
    <phase duration="1.0" state="GrGGrrrrrurr" />
    <phase duration="3.0" state="GyyGrrrrrrrr" />
    <phase duration="1.0" state="GrrGrrrrrrrr" />
    <phase duration="2.0" state="GrrGrrrrruur" />
    <phase duration="3.0" state="GGyGrrrrrrrr" />
    <phase duration="2.0" state="GGrGrrurrrrr" />
    <phase duration="3.0" state="GyyGrrrrrrrr" />
    <phase duration="2.0" state="GrrGruurrrrr" />
    <phase duration="3.0" state="GyyGrrrrrrrr" />
    <phase duration="2.0" state="GrrGrrurrurr" />
    <phase duration="3.0" state="GGyyrrrrrrrr" />
    <phase duration="1.0" state="GGrrrrrrrrrr" />
    <phase duration="2.0" state="GGrrrruurrrr" />
    <phase duration="3.0" state="Gyyyrrrrrrrr" />
    <phase duration="1.0" state="Grrrrrrrrrrr" />
    <phase duration="2.0" state="Grrrrruururr" />
    <phase duration="2.0" state="yyGGrrrrrrrr" />
    <phase duration="1.0" state="yyGGrrrruurr" />
    <phase duration="1.0" state="rrGGrrrruurr" />
    <phase duration="3.0" state="yyyGrrrrrrrr" />
    <phase duration="2.0" state="rrrGrruruurr" />
    <phase duration="3.0" state="yyyyrrrrrrrr" />
    <phase duration="1.0" state="rrrrrrrrrrrr" />
    <phase duration="2.0" state="rrrrrruuuurr" />
    <phase duration="3.0" state="yyyGrrrrrrrr" />
    <phase duration="1.0" state="rrrGrrrrrrrr" />
    <phase duration="2.0" state="rrrGurrrruur" />
    <phase duration="3.0" state="yyyGrrrrrrrr" />
    <phase duration="2.0" state="rrrGururrurr" />
    <phase duration="3.0" state="yyyGrrrrrrrr" />
    <phase duration="2.0" state="rrrGuuurrrrr" />
    <phase duration="3.0" state="GryyrrrrrGrr" />
    <phase duration="1.0" state="GrrrrrrrrGrr" />
    <phase duration="2.0" state="GrrrrrrrrGuu" />
    <phase duration="3.0" state="GryyrrrrrGrr" />
    <phase duration="2.0" state="GrrrrrurrGru" />
    <phase duration="3.0" state="Gryyrrrrryrr" />
    <phase duration="2.0" state="Grrrruurrrru" />
    <phase duration="3.0" state="GrGGrrrrryrr" />
    <phase duration="2.0" state="GuGGrrrrrrrr" />
    <phase duration="3.0" state="GryGrrrrrGrr" />
    <phase duration="1.0" state="GrrGrrrrrGrr" />
    <phase duration="2.0" state="GrrGrrrrrGur" />
    <phase duration="3.0" state="GryGrrrrryrr" />
    <phase duration="2.0" state="GurGrrurrrrr" />
    <phase duration="3.0" state="GryGrrrrryrr" />
    <phase duration="2.0" state="GrrGruurrrrr" />
    <phase duration="3.0" state="GryGrrrrrGrr" />
    <phase duration="2.0" state="GrrGrrurrGrr" />
    <phase duration="3.0" state="Gryyrrrrryrr" />
    <phase duration="1.0" state="Grrrrrrrrrrr" />
    <phase duration="2.0" state="Gurrrruurrrr" />
    <phase duration="3.0" state="GryyrrrrrGrr" />
    <phase duration="1.0" state="GrrrrrrrrGrr" />
    <phase duration="2.0" state="GrrrrruurGrr" />
    <phase duration="2.0" state="yrGGrrrrrGrr" />
    <phase duration="1.0" state="yrGGrrrruGrr" />
    <phase duration="1.0" state="rrGGrrrruGrr" />
    <phase duration="3.0" state="yryGrrrrrGrr" />
    <phase duration="2.0" state="rrrGrruruGrr" />
    <phase duration="3.0" state="yryyrrrrrGrr" />
    <phase duration="1.0" state="rrrrrrrrrGrr" />
    <phase duration="2.0" state="rrrrrruuuGrr" />
    <phase duration="3.0" state="yryGrrrrrGrr" />
    <phase duration="1.0" state="rrrGrrrrrGrr" />
    <phase duration="2.0" state="rrrGurrrrGur" />
    <phase duration="3.0" state="yryGrrrrrGrr" />
    <phase duration="2.0" state="rrrGururrGrr" />
    <phase duration="3.0" state="yryGrrrrryrr" />
    <phase duration="2.0" state="rrrGuuurrrrr" />
    <phase duration="2.0" state="GrryrrrrrGGr" />
    <phase duration="1.0" state="GrryrrrrrGGu" />
    <phase duration="1.0" state="GrrrrrrrrGGu" />
    <phase duration="2.0" state="GrryrrrrrGyr" />
    <phase duration="1.0" state="GrryrrurrGyu" />
    <phase duration="1.0" state="GrrrrrurrGru" />
    <phase duration="2.0" state="Grryrrrrryyr" />
    <phase duration="1.0" state="Grryruurryyu" />
    <phase duration="1.0" state="Grrrruurrrru" />
    <phase duration="3.0" state="GrrGrrrrryyr" />
    <phase duration="2.0" state="GuuGrrrrrrrr" />
    <phase duration="1.0" state="GrrGrrrrrGyr" />
    <phase duration="2.0" state="GruGrrrrrGyr" />
    <phase duration="3.0" state="GrrGrrrrryyr" />
    <phase duration="2.0" state="GurGrrurrrrr" />
    <phase duration="2.0" state="GrrGrrrrryyr" />
    <phase duration="1.0" state="GrrGruurryyr" />
    <phase duration="1.0" state="GrrGruurrrrr" />
    <phase duration="2.0" state="GrrGrrrrrGyr" />
    <phase duration="1.0" state="GrrGrrurrGyr" />
    <phase duration="1.0" state="GrrGrrurrGrr" />
    <phase duration="3.0" state="Grryrrrrryyr" />
    <phase duration="2.0" state="Gurrrruurrrr" />
    <phase duration="3.0" state="GrryrrrrrGyr" />
    <phase duration="2.0" state="GrrrrruurGrr" />
    <phase duration="2.0" state="yrrGrrrrrGyr" />
    <phase duration="1.0" state="yruGrrrruGyr" />
    <phase duration="1.0" state="rruGrrrruGrr" />
    <phase duration="2.0" state="yrrGrrrrrGyr" />
    <phase duration="1.0" state="yrrGrruruGyr" />
    <phase duration="1.0" state="rrrGrruruGrr" />
    <phase duration="3.0" state="yrryrrrrrGyr" />
    <phase duration="2.0" state="rrrrrruuuGrr" />
    <phase duration="3.0" state="yrrGrrrrrGGr" />
    <phase duration="2.0" state="rrrGurrrrGGr" />
    <phase duration="3.0" state="yrrGrrrrrGyr" />
    <phase duration="2.0" state="rrrGururrGrr" />
    <phase duration="3.0" state="yrrGrrrrryyr" />
    <phase duration="2.0" state="rrrGuuurrrrr" />
    <phase duration="3.0" state="Gyryrryrrrrr" />
    <phase duration="2.0" state="Grrrrrrrruuu" />
    <phase duration="2.0" state="GyryrrGrrrrr" />
    <phase duration="1.0" state="GyryrrGrruru" />
    <phase duration="1.0" state="GrrrrrGrruru" />
    <phase duration="2.0" state="GyryrrGrrrrr" />
    <phase duration="1.0" state="GyryruGrrrru" />
    <phase duration="1.0" state="GrrrruGrrrru" />
    <phase duration="2.0" state="GGrGrryrrrrr" />
    <phase duration="1.0" state="GGuGrryrrrrr" />
    <phase duration="1.0" state="GGuGrrrrrrrr" />
    <phase duration="2.0" state="GyrGrryrrrrr" />
    <phase duration="1.0" state="GyuGrryrrurr" />
    <phase duration="1.0" state="GruGrrrrrurr" />
    <phase duration="3.0" state="GyrGrryrrrrr" />
    <phase duration="2.0" state="GrrGrrrrruur" />
    <phase duration="1.0" state="GyrGrrGrrrrr" />
    <phase duration="2.0" state="GyrGruGrrrrr" />
    <phase duration="2.0" state="GyrGrrGrrrrr" />
    <phase duration="1.0" state="GyrGrrGrrurr" />
    <phase duration="1.0" state="GrrGrrGrrurr" />
    <phase duration="3.0" state="GGryrrGrrrrr" />
    <phase duration="2.0" state="GGrrrrGurrrr" />
    <phase duration="3.0" state="GyryrrGrrrrr" />
    <phase duration="2.0" state="GrrrrrGururr" />
    <phase duration="2.0" state="yyrGrryrrrrr" />
    <phase duration="1.0" state="yyuGrryruurr" />
    <phase duration="1.0" state="rruGrrrruurr" />
    <phase duration="2.0" state="yyrGrrGrrrrr" />
    <phase duration="1.0" state="yyrGrrGruurr" />
    <phase duration="1.0" state="rrrGrrGruurr" />
    <phase duration="3.0" state="yyryrrGrrrrr" />
    <phase duration="2.0" state="rrrrrrGuuurr" />
    <phase duration="3.0" state="yyrGrryrrrrr" />
    <phase duration="2.0" state="rrrGurrrruur" />
    <phase duration="3.0" state="yyrGrrGrrrrr" />
    <phase duration="2.0" state="rrrGurGrrurr" />
    <phase duration="3.0" state="yyrGrrGrrrrr" />
    <phase duration="2.0" state="rrrGuuGrrrrr" />
    <phase duration="3.0" state="Grryryyrrrrr" />
    <phase duration="1.0" state="Grrrrrrrrrrr" />
    <phase duration="2.0" state="Grrrrrrrruuu" />
    <phase duration="3.0" state="GrryryGrrrrr" />
    <phase duration="2.0" state="GrrrrrGrruru" />
    <phase duration="2.0" state="GrryrGGrrrrr" />
    <phase duration="1.0" state="GrryrGGrrrru" />
    <phase duration="1.0" state="GrrrrGGrrrru" />
    <phase duration="3.0" state="GrrGryyrrrrr" />
    <phase duration="1.0" state="GrrGrrrrrrrr" />
    <phase duration="2.0" state="GuuGrrrrrrrr" />
    <phase duration="3.0" state="GrrGryyrrrrr" />
    <phase duration="2.0" state="GruGrrrrrurr" />
    <phase duration="3.0" state="GrrGryyrrrrr" />
    <phase duration="1.0" state="GrrGrrrrrrrr" />
    <phase duration="2.0" state="GrrGrrrrruur" />
    <phase duration="3.0" state="GrrGryGrrrrr" />
    <phase duration="1.0" state="GrrGrrGrrrrr" />
    <phase duration="2.0" state="GurGrrGrrrrr" />
    <phase duration="3.0" state="GrrGryGrrrrr" />
    <phase duration="2.0" state="GrrGrrGrrurr" />
    <phase duration="3.0" state="GrryryGrrrrr" />
    <phase duration="1.0" state="GrrrrrGrrrrr" />
    <phase duration="2.0" state="GurrrrGurrrr" />
    <phase duration="3.0" state="GrryryGrrrrr" />
    <phase duration="2.0" state="GrrrrrGururr" />
    <phase duration="3.0" state="yrrGryyrrrrr" />
    <phase duration="2.0" state="rruGrrrruurr" />
    <phase duration="3.0" state="yrrGryGrrrrr" />
    <phase duration="2.0" state="rrrGrrGruurr" />
    <phase duration="3.0" state="yrryryGrrrrr" />
    <phase duration="2.0" state="rrrrrrGuuurr" />
    <phase duration="3.0" state="yrrGryyrrrrr" />