<?xml version="1.0" encoding="UTF-8"?>

<!-- generated on 2026-01-25T13:26:20.481982+01:00 by Eclipse SUMO duarouter 1.25.0
<duarouterConfiguration xmlns:xsi="http://www.w3.org/2001/XMLSchema-instance" xsi:noNamespaceSchemaLocation="http://sumo.dlr.de/xsd/duarouterConfiguration.xsd">

    <input>
        <net-file value="/Users/wagnertamas/Documents/Munka/cikkek/AI_agens_konyvtar/support/intergreen_matrix_calculator/data/mega_catalogue_v2.net.xml"/>
        <route-files value="/Users/wagnertamas/Documents/Munka/cikkek/AI_agens_konyvtar/support/intergreen_matrix_calculator/data/runs/proc_2/random_traffic.rou.xml"/>
    </input>

    <output>
        <output-file value="/Users/wagnertamas/Documents/Munka/cikkek/AI_agens_konyvtar/support/intergreen_matrix_calculator/data/runs/proc_2/random_traffic.rou.xml.tmp"/>
        <alternatives-output value="NUL"/>
        <write-trips value="true"/>
    </output>

    <processing>
        <routing-threads value="6"/>
        <routing-algorithm value="CH"/>
    </processing>

    <time>
        <begin value="0"/>
        <end value="3600.0"/>
    </time>

    <report>
        <no-warnings value="true"/>
        <ignore-errors value="true"/>
        <no-step-log value="true"/>
    </report>

</duarouterConfiguration>
-->

<routes xmlns:xsi="http://www.w3.org/2001/XMLSchema-instance" xsi:noNamespaceSchemaLocation="http://sumo.dlr.de/xsd/routes_file.xsd">
    <trip id="56" depart="0.23" from="e43_w" to="e43_ce"/>
    <trip id="78" depart="0.32" from="e21_n" to="e21_ce"/>
    <trip id="88" depart="0.36" from="e25_cs" to="e25_cs.35"/>
    <trip id="106" depart="0.43" from="e45_e" to="e45_cw"/>
    <trip id="118" depart="0.48" from="e33_main_e" to="e33_main_cw"/>
    <trip id="228" depart="0.93" from="e22_e" to="e22_cw"/>
    <trip id="242" depart="0.99" from="e21_n" to="e21_ce"/>
    <trip id="279" depart="1.14" from="e42_s2cw" to="e42_ce2e"/>
    <trip id="321" depart="1.32" from="e25_w" to="e25_ce"/>
    <trip id="334" depart="1.37" from="e33_side_n" to="e33_main_cw"/>
    <trip id="358" depart="1.47" from="e45_e" to="e45_cw"/>
    <trip id="365" depart="1.50" from="e23_s" to="e23_ce"/>
    <trip id="396" depart="1.62" from="e22_n" to="e22_cs"/>
    <trip id="400" depart="1.64" from="e32_main_w" to="e32_main_ce"/>
    <trip id="405" depart="1.66" from="e35_side_s" to="e35_main_ce"/>
    <trip id="435" depart="1.78" from="e21_w" to="e21_cs"/>
    <trip id="452" depart="1.85" from="e33_side_s" to="e33_main_cw"/>
    <trip id="542" depart="2.22" from="e32_side_s" to="e32_main_cw"/>
    <trip id="587" depart="2.41" from="e32_side_s" to="e32_side_cn"/>
    <trip id="611" depart="2.51" from="e22_w" to="e22_ce"/>
    <trip id="635" depart="2.60" from="e43_w" to="e43_ce"/>
    <trip id="646" depart="2.65" from="e23_w" to="e23_cs"/>
    <trip id="647" depart="2.65" from="e15_nw" to="e15_cs"/>
    <trip id="665" depart="2.73" from="e45_e" to="e45_cs"/>
    <trip id="702" depart="2.88" from="e31_side_s" to="e31_main_cw"/>
    <trip id="739" depart="3.03" from="e45_s" to="e45_ce"/>
    <trip id="802" depart="3.29" from="e12_w" to="e12_ce"/>
    <trip id="803" depart="3.29" from="e25_n" to="e25_cw"/>
    <trip id="817" depart="3.35" from="e31_side_n" to="e31_main_ce"/>
    <trip id="839" depart="3.44" from="e25_w" to="e25_cn"/>
    <trip id="852" depart="3.49" from="e41_s" to="e41_cn"/>
    <trip id="855" depart="3.51" from="e33_side_n" to="e33_main_cw"/>
    <trip id="873" depart="3.58" from="e22_s" to="e22_cn"/>
    <trip id="875" depart="3.59" from="e23_e" to="e23_cn"/>
    <trip id="881" depart="3.61" from="e22_s" to="e22_cn"/>
    <trip id="963" depart="3.95" from="e43_e" to="e43_cw"/>
    <trip id="992" depart="4.07" from="e43_n" to="e43_cw"/>
    <trip id="1022" depart="4.19" from="e31_side_n" to="e31_main_ce"/>
    <trip id="1070" depart="4.39" from="e43_e" to="e43_cn"/>
    <trip id="1121" depart="4.60" from="e42_e2ce" to="e42_cw2w"/>
    <trip id="1153" depart="4.73" from="e32_side_s" to="e32_side_cn"/>
    <trip id="1177" depart="4.83" from="e41_e" to="e41_cw"/>
    <trip id="1183" depart="4.85" from="e33_main_e" to="e33_main_cw"/>
    <trip id="1188" depart="4.87" from="e13_e" to="e13_cw"/>
    <trip id="1201" depart="4.92" from="e31_main_w" to="e31_main_ce"/>
    <trip id="1291" depart="5.29" from="e31_side_n" to="e31_main_cw"/>
    <trip id="1297" depart="5.32" from="e45_s" to="e45_cw"/>
    <trip id="1315" depart="5.39" from="e35_main_e" to="e35_side_cn"/>
    <trip id="1371" depart="5.62" from="e13_s" to="e13_cw"/>
    <trip id="1375" depart="5.64" from="e22_e" to="e22_cw"/>
    <trip id="1410" depart="5.78" from="e15_ne" to="e15_cs"/>
    <trip id="1419" depart="5.82" from="e41_w" to="e41_cs"/>
    <trip id="1439" depart="5.90" from="e32_side_n" to="e32_main_cw"/>
    <trip id="1451" depart="5.95" from="e42_s2cw" to="e42_cw2w"/>
    <trip id="1484" depart="6.08" from="e22_s" to="e22_cw"/>
    <trip id="1489" depart="6.10" from="e33_main_e" to="e33_main_cw"/>
    <trip id="1510" depart="6.19" from="e21_n" to="e21_cw"/>
    <trip id="1525" depart="6.25" from="e45_s" to="e45_cn"/>
    <trip id="1538" depart="6.31" from="e44_w" to="e44_ce"/>
    <trip id="1557" depart="6.38" from="e15_nw" to="e15_cs"/>
    <trip id="1578" depart="6.47" from="e34_main_e" to="e34_side_cn"/>
    <trip id="1605" depart="6.58" from="e24_w" to="e24_ce"/>
    <trip id="1674" depart="6.86" from="e13_w" to="e13_ce"/>
    <trip id="1675" depart="6.87" from="e15_s" to="e15_cnw"/>
    <trip id="1686" depart="6.91" from="e21_w" to="e21_cn"/>
    <trip id="1713" depart="7.02" from="e22_e" to="e22_cw"/>
    <trip id="1763" depart="7.23" from="e31_main_e" to="e31_main_cw"/>
    <trip id="1828" depart="7.49" from="e23_n" to="e23_cs"/>
    <trip id="1834" depart="7.52" from="e33_main_w" to="e33_side_cn"/>
    <trip id="1884" depart="7.72" from="e42_w2cw" to="e42_cw2s"/>
    <trip id="1912" depart="7.84" from="e32_main_w" to="e32_main_ce"/>
    <trip id="1930" depart="7.91" from="e25_w" to="e25_cn"/>
    <trip id="1943" depart="7.97" from="e14_s" to="e14_cw"/>
    <trip id="1985" depart="8.14" from="e13_s" to="e13_cw"/>
    <trip id="1992" depart="8.17" from="e34_main_e" to="e34_side_cn"/>
    <trip id="2042" depart="8.37" from="e41_n" to="e41_ce"/>
    <trip id="2063" depart="8.46" from="e34_side_n" to="e34_main_cw"/>
    <trip id="2068" depart="8.48" from="e43_s" to="e43_ce"/>
    <trip id="2141" depart="8.78" from="e33_main_e" to="e33_side_cn"/>
    <trip id="2147" depart="8.80" from="e22_e" to="e22_cs"/>
    <trip id="2150" depart="8.82" from="e25_w" to="E0"/>
    <trip id="2152" depart="8.82" from="e25_w" to="E0"/>
    <trip id="2155" depart="8.84" from="e24_e" to="e24_cs"/>
    <trip id="2158" depart="8.85" from="e24_n" to="e24_ce"/>
    <trip id="2166" depart="8.88" from="e33_side_s" to="e33_main_cw"/>
    <trip id="2181" depart="8.94" from="e42_s2cw" to="e42_ce2e"/>
    <trip id="2209" depart="9.06" from="e41_e" to="e41_cw"/>
    <trip id="2215" depart="9.08" from="e15_nw" to="e15_cne"/>
    <trip id="2261" depart="9.27" from="e23_e" to="e23_cw"/>
    <trip id="2357" depart="9.66" from="e33_main_w" to="e33_side_cn"/>
    <trip id="2365" depart="9.70" from="e45_w" to="e45_cs"/>
    <trip id="2372" depart="9.73" from="e24_w" to="e24_cs"/>
    <trip id="2457" depart="10.07" from="e31_side_s" to="e31_side_cn"/>
    <trip id="2499" depart="10.25" from="e35_side_s" to="e35_main_ce"/>
    <trip id="2505" depart="10.27" from="e41_s" to="e41_cn"/>
    <trip id="2545" depart="10.43" from="e25_w" to="e25_cn"/>
    <trip id="2596" depart="10.64" from="e24_n" to="e24_ce"/>
    <trip id="2671" depart="10.95" from="e35_side_s" to="e35_side_cn"/>
    <trip id="2756" depart="11.30" from="e41_w" to="e41_ce"/>
    <trip id="2788" depart="11.43" from="e41_w" to="e41_ce"/>
    <trip id="2811" depart="11.53" from="e33_side_s" to="e33_main_cw"/>
    <trip id="2842" depart="11.65" from="e41_w" to="e41_cs"/>
    <trip id="2859" depart="11.72" from="e31_main_e" to="e31_side_cn"/>
    <trip id="2993" depart="12.27" from="e41_n" to="e41_ce"/>
    <trip id="3049" depart="12.50" from="e12_e" to="e12_cs"/>
    <trip id="3079" depart="12.62" from="e23_w" to="e23_cs"/>
    <trip id="3089" depart="12.66" from="e24_e" to="e24_cn"/>
    <trip id="3181" depart="13.04" from="e42_e2ce" to="e42_ce2n"/>
    <trip id="3206" depart="13.14" from="e24_s" to="e24_cw"/>
    <trip id="3225" depart="13.22" from="e34_side_s" to="e34_side_cn"/>
    <trip id="3226" depart="13.23" from="e35_main_w" to="e35_main_ce"/>
    <trip id="3247" depart="13.31" from="e22_e" to="e22_cw"/>
    <trip id="3282" depart="13.46" from="e24_e" to="e24_cn"/>
    <trip id="3321" depart="13.62" from="e15_nw" to="e15_cne"/>
    <trip id="3351" depart="13.74" from="e33_main_e" to="e33_main_cw"/>
    <trip id="3382" depart="13.87" from="e21_n" to="e21_cw"/>
    <trip id="3383" depart="13.87" from="e23_n" to="e23_cs"/>
    <trip id="3390" depart="13.90" from="e13_w" to="e13_ce"/>
    <trip id="3409" depart="13.98" from="e24_w" to="e24_cs"/>
    <trip id="3460" depart="14.19" from="e25_w" to="e25_cn"/>
    <trip id="3481" depart="14.27" from="e43_s" to="e43_cn"/>
    <trip id="3490" depart="14.31" from="e25_s" to="e25_cn"/>
    <trip id="3570" depart="14.64" from="e42_e2ce" to="e42_ce2n"/>
    <trip id="3613" depart="14.81" from="e33_main_e" to="e33_side_cn"/>
    <trip id="3652" depart="14.97" from="e42_n2ce" to="e42_cw2w"/>
    <trip id="3656" depart="14.99" from="e34_main_w" to="e34_side_cs"/>
    <trip id="3703" depart="15.18" from="e23_e" to="e23_cw"/>
    <trip id="3726" depart="15.28" from="e15_s" to="e15_cnw"/>
    <trip id="3740" depart="15.33" from="e41_s" to="e41_ce"/>
    <trip id="3756" depart="15.40" from="e33_side_s" to="e33_main_ce"/>
    <trip id="3798" depart="15.57" from="e35_main_e" to="e35_main_cw"/>
    <trip id="3828" depart="15.69" from="e41_n" to="e41_ce"/>
    <trip id="3853" depart="15.80" from="e34_side_s" to="e34_side_cn"/>
    <trip id="3903" depart="16.00" from="e25_s" to="e25_cn"/>
    <trip id="3918" depart="16.06" from="e31_side_n" to="e31_main_ce"/>
    <trip id="3971" depart="16.28" from="e23_w" to="e23_ce"/>
    <trip id="3973" depart="16.29" from="e35_main_e" to="e35_main_cw"/>
    <trip id="4011" depart="16.45" from="e33_main_e" to="e33_side_cs"/>
    <trip id="4176" depart="17.12" from="e35_main_w" to="e35_main_ce"/>
    <trip id="4213" depart="17.27" from="e15_s" to="e15_cnw"/>
    <trip id="4224" depart="17.32" from="e13_w" to="e13_cs"/>
    <trip id="4249" depart="17.42" from="e22_w" to="e22_ce"/>
    <trip id="4324" depart="17.73" from="e15_nw" to="e15_cne"/>
    <trip id="4330" depart="17.75" from="e12_w" to="e12_cs"/>
    <trip id="4358" depart="17.87" from="e13_w" to="e13_ce"/>
    <trip id="4361" depart="17.88" from="e44_n" to="e44_ce"/>
    <trip id="4388" depart="17.99" from="e35_side_s" to="e35_main_ce"/>
    <trip id="4406" depart="18.06" from="e12_w" to="e12_cs"/>
    <trip id="4460" depart="18.29" from="e23_n" to="e23_cs"/>
    <trip id="4486" depart="18.39" from="e33_side_n" to="e33_side_cs"/>
    <trip id="4527" depart="18.56" from="e35_side_s" to="e35_side_cn"/>
    <trip id="4577" depart="18.77" from="e45_n" to="e45_cw"/>
    <trip id="4602" depart="18.87" from="e33_side_n" to="e33_side_cs"/>
    <trip id="4617" depart="18.93" from="e45_s" to="e45_cw"/>
    <trip id="4640" depart="19.02" from="e33_side_n" to="e33_main_ce"/>
    <trip id="4666" depart="19.13" from="e14_e" to="e14_cw"/>
    <trip id="4687" depart="19.22" from="e15_ne" to="e15_cnw"/>
    <trip id="4704" depart="19.29" from="e21_n" to="e21_cw"/>
    <trip id="4736" depart="19.42" from="e31_side_s" to="e31_main_ce"/>
    <trip id="4798" depart="19.67" from="e22_w" to="e22_cn"/>
    <trip id="4930" depart="20.21" from="e44_w" to="e44_ce"/>
    <trip id="5029" depart="20.62" from="e25_n" to="e25_cs.35"/>
    <trip id="5050" depart="20.71" from="e23_e" to="e23_cw"/>
    <trip id="5069" depart="20.78" from="e32_side_n" to="e32_main_ce"/>
    <trip id="5089" depart="20.86" from="e22_s" to="e22_cw"/>
    <trip id="5093" depart="20.88" from="e43_s" to="e43_ce"/>
    <trip id="5100" depart="20.91" from="e43_e" to="e43_cw"/>
    <trip id="5104" depart="20.93" from="e33_main_e" to="e33_main_cw"/>
    <trip id="5144" depart="21.09" from="e25_n" to="e25_ce"/>
    <trip id="5196" depart="21.30" from="e15_ne" to="e15_cs"/>
    <trip id="5304" depart="21.75" from="e14_s" to="e14_cw"/>
    <trip id="5422" depart="22.23" from="e41_n" to="e41_cw"/>
    <trip id="5435" depart="22.28" from="e13_s" to="e13_cw"/>
    <trip id="5502" depart="22.56" from="e22_e" to="e22_cs"/>
    <trip id="5546" depart="22.74" from="e23_e" to="e23_cw"/>
    <trip id="5559" depart="22.79" from="e33_side_s" to="e33_main_cw"/>
    <trip id="5568" depart="22.83" from="e42_w2cw" to="e42_cw2s"/>
    <trip id="5571" depart="22.84" from="e44_w" to="e44_ce"/>
    <trip id="5581" depart="22.88" from="e11_e" to="e11_cs"/>
    <trip id="5602" depart="22.97" from="e22_e" to="e22_cn"/>
    <trip id="5622" depart="23.05" from="e23_e" to="e23_cw"/>
    <trip id="5629" depart="23.08" from="e41_n" to="e41_cs"/>
    <trip id="5643" depart="23.14" from="e34_side_s" to="e34_main_ce"/>
    <trip id="5657" depart="23.19" from="e32_side_n" to="e32_side_cs"/>
    <trip id="5677" depart="23.28" from="e41_n" to="e41_ce"/>
    <trip id="5682" depart="23.30" from="e14_w" to="e14_cs"/>
    <trip id="5683" depart="23.30" from="e41_n" to="e41_cs"/>
    <trip id="5687" depart="23.32" from="e41_s" to="e41_cn"/>
    <trip id="5691" depart="23.33" from="e23_n" to="e23_cs"/>
    <trip id="5716" depart="23.44" from="e14_w" to="e14_cs"/>
    <trip id="5727" depart="23.48" from="e25_w" to="e25_cs.35"/>
    <trip id="5737" depart="23.52" from="e41_w" to="e41_cs"/>
    <trip id="5756" depart="23.60" from="e21_w" to="e21_ce"/>
    <trip id="5822" depart="23.87" from="e33_main_w" to="e33_side_cs"/>
    <trip id="5842" depart="23.95" from="e15_s" to="e15_cne"/>
    <trip id="5890" depart="24.15" from="e41_e" to="e41_cw"/>
    <trip id="5912" depart="24.24" from="e41_w" to="e41_ce"/>
    <trip id="5956" depart="24.42" from="e42_e2ce" to="e42_cw2s"/>
    <trip id="6033" depart="24.74" from="e15_nw" to="e15_cne"/>
    <trip id="6069" depart="24.88" from="e44_n" to="e44_cs"/>
    <trip id="6073" depart="24.90" from="e23_n" to="e23_cw"/>
    <trip id="6121" depart="25.10" from="e24_w" to="e24_cs"/>
    <trip id="6124" depart="25.11" from="e33_main_e" to="e33_side_cn"/>
    <trip id="6237" depart="25.57" from="e45_n" to="e45_ce"/>
    <trip id="6263" depart="25.68" from="e34_side_n" to="e34_side_cs"/>
    <trip id="6283" depart="25.76" from="e13_s" to="e13_cw"/>
    <trip id="6296" depart="25.81" from="e15_ne" to="e15_cnw"/>
    <trip id="6323" depart="25.92" from="e25_w" to="e25_cs.35"/>
    <trip id="6373" depart="26.13" from="e41_n" to="e41_cs"/>
    <trip id="6379" depart="26.15" from="e22_n" to="e22_cw"/>
    <trip id="6480" depart="26.57" from="e24_s" to="e24_ce"/>
    <trip id="6577" depart="26.97" from="e41_n" to="e41_cw"/>
    <trip id="6595" depart="27.04" from="e43_w" to="e43_ce"/>
    <trip id="6632" depart="27.19" from="e12_s" to="e12_cw"/>
    <trip id="6646" depart="27.25" from="e22_e" to="e22_cn"/>
    <trip id="6731" depart="27.60" from="e42_e2ce" to="e42_cw2s"/>
    <trip id="6773" depart="27.77" from="e31_main_w" to="e31_main_ce"/>
    <trip id="6841" depart="28.05" from="e45_s" to="e45_cw"/>
    <trip id="6888" depart="28.24" from="e34_main_w" to="e34_side_cs"/>
    <trip id="6896" depart="28.27" from="e13_w" to="e13_cs"/>
    <trip id="6929" depart="28.41" from="e31_main_w" to="e31_side_cs"/>
    <trip id="6972" depart="28.59" from="e41_n" to="e41_cs"/>
    <trip id="6988" depart="28.65" from="e23_s" to="e23_cn"/>
    <trip id="7027" depart="28.81" from="e15_nw" to="e15_cs"/>
    <trip id="7030" depart="28.82" from="e32_main_w" to="e32_main_ce"/>
    <trip id="7031" depart="28.83" from="e42_w2cw" to="e42_ce2e"/>
    <trip id="7041" depart="28.87" from="e25_w" to="e25_cs.35"/>
    <trip id="7090" depart="29.07" from="e22_s" to="e22_cn"/>
    <trip id="7139" depart="29.27" from="e43_n" to="e43_cs"/>
    <trip id="7173" depart="29.41" from="e35_main_w" to="e35_main_ce"/>
    <trip id="7210" depart="29.56" from="e11_e" to="e11_cs"/>
    <trip id="7223" depart="29.61" from="e22_s" to="e22_cn"/>
    <trip id="7235" depart="29.66" from="e31_side_n" to="e31_side_cs"/>
    <trip id="7282" depart="29.86" from="e24_e" to="e24_cs"/>
    <trip id="7304" depart="29.95" from="e33_main_e" to="e33_side_cn"/>
    <trip id="7322" depart="30.02" from="e22_e" to="e22_cn"/>
    <trip id="7422" depart="30.43" from="e41_w" to="e41_cs"/>
    <trip id="7439" depart="30.50" from="e42_w2cw" to="e42_ce2n"/>
    <trip id="7448" depart="30.54" from="e42_n2ce" to="e42_ce2e"/>
    <trip id="7561" depart="31.00" from="e24_s" to="e24_cn"/>
    <trip id="7651" depart="31.37" from="e25_n" to="e25_ce"/>
    <trip id="7669" depart="31.44" from="e43_e" to="e43_cn"/>
    <trip id="7696" depart="31.55" from="e21_s" to="e21_cw"/>
    <trip id="7718" depart="31.64" from="e45_n" to="e45_ce"/>
    <trip id="7741" depart="31.74" from="e42_n2ce" to="e42_cw2w"/>
    <trip id="7746" depart="31.76" from="e31_side_s" to="e31_main_ce"/>
    <trip id="7749" depart="31.77" from="e32_side_s" to="e32_main_cw"/>
    <trip id="7759" depart="31.81" from="e31_side_n" to="e31_main_cw"/>
    <trip id="7768" depart="31.85" from="e22_n" to="e22_cs"/>
    <trip id="7770" depart="31.86" from="e42_e2ce" to="e42_cw2w"/>
    <trip id="7826" depart="32.09" from="e23_w" to="e23_ce"/>
    <trip id="7859" depart="32.22" from="e41_n" to="e41_cw"/>
    <trip id="7877" depart="32.30" from="e22_n" to="e22_cs"/>
    <trip id="7911" depart="32.44" from="e42_n2ce" to="e42_ce2e"/>
    <trip id="7939" depart="32.55" from="e44_n" to="e44_cs"/>
    <trip id="7946" depart="32.58" from="e45_s" to="e45_cn"/>
    <trip id="7950" depart="32.60" from="e42_e2ce" to="e42_cw2s"/>
    <trip id="8001" depart="32.80" from="e31_side_s" to="e31_main_cw"/>
    <trip id="8022" depart="32.89" from="e22_n" to="e22_cs"/>
    <trip id="8057" depart="33.03" from="e12_w" to="e12_cs"/>
    <trip id="8060" depart="33.05" from="e41_n" to="e41_cw"/>
    <trip id="8091" depart="33.17" from="e34_side_s" to="e34_side_cn"/>
    <trip id="8103" depart="33.22" from="e31_side_s" to="e31_side_cn"/>
    <trip id="8143" depart="33.39" from="e41_n" to="e41_ce"/>
    <trip id="8245" depart="33.80" from="e41_n" to="e41_ce"/>
    <trip id="8248" depart="33.82" from="e32_main_e" to="e32_side_cn"/>
    <trip id="8272" depart="33.92" from="e25_s" to="e25_cn"/>
    <trip id="8284" depart="33.96" from="e43_n" to="e43_cw"/>
    <trip id="8398" depart="34.43" from="e34_main_e" to="e34_side_cn"/>
    <trip id="8426" depart="34.55" from="e12_w" to="e12_ce"/>
    <trip id="8429" depart="34.56" from="e24_s" to="e24_cw"/>
    <trip id="8522" depart="34.94" from="e11_e" to="e11_cs"/>
    <trip id="8564" depart="35.11" from="e25_n" to="e25_ce"/>
    <trip id="8570" depart="35.14" from="e14_e" to="e14_cw"/>
    <trip id="8580" depart="35.18" from="e31_side_s" to="e31_main_ce"/>
    <trip id="8581" depart="35.18" from="e45_s" to="e45_ce"/>
    <trip id="8590" depart="35.22" from="e45_w" to="e45_ce"/>
    <trip id="8597" depart="35.25" from="e42_n2ce" to="e42_cw2s"/>
    <trip id="8652" depart="35.47" from="e34_main_e" to="e34_side_cn"/>
    <trip id="8680" depart="35.59" from="e15_s" to="e15_cnw"/>
    <trip id="8698" depart="35.66" from="e21_n" to="e21_ce"/>
    <trip id="8754" depart="35.89" from="e24_e" to="e24_cw"/>
    <trip id="8763" depart="35.93" from="e25_w" to="E0"/>
    <trip id="8779" depart="35.99" from="e34_main_e" to="e34_side_cn"/>
    <trip id="8821" depart="36.17" from="e14_w" to="e14_cs"/>
    <trip id="8910" depart="36.53" from="e35_side_n" to="e35_side_cs"/>
    <trip id="8914" depart="36.55" from="e14_s" to="e14_ce"/>
    <trip id="8917" depart="36.56" from="e21_n" to="e21_ce"/>
    <trip id="8980" depart="36.82" from="e13_w" to="e13_ce"/>
    <trip id="9090" depart="37.27" from="e41_n" to="e41_ce"/>
    <trip id="9113" depart="37.36" from="e35_side_n" to="e35_main_cw"/>
    <trip id="9125" depart="37.41" from="e25_w" to="e25_cn"/>
    <trip id="9230" depart="37.84" from="e21_s" to="e21_ce"/>
    <trip id="9250" depart="37.93" from="e23_n" to="e23_cw"/>
    <trip id="9277" depart="38.04" from="e25_w" to="E0"/>
    <trip id="9294" depart="38.11" from="e32_side_s" to="e32_side_cn"/>
    <trip id="9322" depart="38.22" from="e42_s2cw" to="e42_cw2ce"/>
    <trip id="9383" depart="38.47" from="e42_w2cw" to="e42_ce2e"/>
    <trip id="9423" depart="38.63" from="e22_e" to="e22_cw"/>
    <trip id="9431" depart="38.67" from="e45_n" to="e45_cs"/>
    <trip id="9432" depart="38.67" from="e41_s" to="e41_ce"/>
    <trip id="9433" depart="38.68" from="e42_s2cw" to="e42_ce2e"/>
    <trip id="9434" depart="38.68" from="e41_n" to="e41_ce"/>
    <trip id="9457" depart="38.77" from="e12_s" to="e12_ce"/>
    <trip id="9508" depart="38.98" from="e25_w" to="E0"/>
    <trip id="9509" depart="38.99" from="e21_w" to="e21_cs"/>
    <trip id="9597" depart="39.35" from="e13_w" to="e13_ce"/>
    <trip id="9623" depart="39.45" from="e31_side_s" to="e31_main_cw"/>
    <trip id="9645" depart="39.54" from="e35_main_w" to="e35_side_cs"/>
    <trip id="9688" depart="39.72" from="e31_side_n" to="e31_main_cw"/>
    <trip id="9692" depart="39.74" from="e22_w" to="e22_cs"/>
    <trip id="9698" depart="39.76" from="e23_w" to="e23_cs"/>
    <trip id="9731" depart="39.90" from="e12_e" to="e12_cw"/>
    <trip id="9747" depart="39.96" from="e23_n" to="e23_cw"/>
    <trip id="9774" depart="40.07" from="e34_main_e" to="e34_main_cw"/>
    <trip id="9864" depart="40.44" from="e24_s" to="e24_cw"/>
    <trip id="9945" depart="40.77" from="e24_w" to="e24_cn"/>
    <trip id="9956" depart="40.82" from="e11_s" to="e11_cw"/>
    <trip id="10000" depart="41.00" from="e13_s" to="e13_cw"/>
    <trip id="10005" depart="41.02" from="e22_n" to="e22_cw"/>
    <trip id="10010" depart="41.04" from="e25_e" to="e25_cn"/>
    <trip id="10037" depart="41.15" from="e21_e" to="e21_cn"/>
    <trip id="10087" depart="41.36" from="e11_e" to="e11_cw"/>
    <trip id="10110" depart="41.45" from="e15_s" to="e15_cne"/>
    <trip id="10115" depart="41.47" from="e21_e" to="e21_cs"/>
    <trip id="10128" depart="41.52" from="e41_s" to="e41_cw"/>
    <trip id="10144" depart="41.59" from="e22_n" to="e22_cw"/>
    <trip id="10170" depart="41.70" from="e34_side_s" to="e34_main_ce"/>
    <trip id="10175" depart="41.72" from="e21_n" to="e21_cs"/>
    <trip id="10264" depart="42.08" from="e42_n2ce" to="e42_cw2s"/>
    <trip id="10322" depart="42.32" from="e32_side_s" to="e32_main_cw"/>
    <trip id="10324" depart="42.33" from="e43_n" to="e43_cs"/>
    <trip id="10398" depart="42.63" from="e31_main_w" to="e31_main_ce"/>
    <trip id="10413" depart="42.69" from="e25_e" to="e25_cn"/>
    <trip id="10497" depart="43.04" from="e41_s" to="e41_cw"/>
    <trip id="10510" depart="43.09" from="e11_e" to="e11_cw"/>
    <trip id="10530" depart="43.17" from="e22_s" to="e22_cw"/>
    <trip id="10543" depart="43.23" from="e31_main_w" to="e31_main_ce"/>
    <trip id="10619" depart="43.54" from="e25_n" to="e25_ce"/>
    <trip id="10657" depart="43.69" from="e33_main_e" to="e33_side_cs"/>
    <trip id="10713" depart="43.92" from="e24_w" to="e24_ce"/>
    <trip id="10729" depart="43.99" from="e23_s" to="e23_ce"/>
    <trip id="10738" depart="44.03" from="e42_n2ce" to="e42_ce2e"/>
    <trip id="10753" depart="44.09" from="e42_s2cw" to="e42_ce2e"/>
    <trip id="10765" depart="44.14" from="e21_n" to="e21_cs"/>
    <trip id="10839" depart="44.44" from="e21_e" to="e21_cw"/>
    <trip id="10932" depart="44.82" from="e32_side_n" to="e32_main_ce"/>
    <trip id="10942" depart="44.86" from="e22_w" to="e22_ce"/>
    <trip id="10982" depart="45.03" from="e42_cw2ce" to="e42_ce2e"/>
    <trip id="11005" depart="45.12" from="e21_s" to="e21_cn"/>
    <trip id="11034" depart="45.24" from="e42_w2cw" to="e42_ce2e"/>
    <trip id="11060" depart="45.35" from="e12_e" to="e12_cs"/>
    <trip id="11119" depart="45.59" from="e33_side_s" to="e33_main_cw"/>
    <trip id="11208" depart="45.95" from="e13_e" to="e13_cw"/>
    <trip id="11214" depart="45.98" from="e31_side_n" to="e31_main_ce"/>
    <trip id="11228" depart="46.03" from="e24_n" to="e24_cs"/>
    <trip id="11275" depart="46.23" from="e33_main_w" to="e33_main_ce"/>
    <trip id="11314" depart="46.39" from="e35_side_n" to="e35_main_cw"/>
    <trip id="11348" depart="46.53" from="e11_e" to="e11_cs"/>
    <trip id="11501" depart="47.15" from="e45_e" to="e45_cs"/>
    <trip id="11510" depart="47.19" from="e41_s" to="e41_cw"/>
    <trip id="11514" depart="47.21" from="e42_e2ce" to="e42_cw2s"/>
    <trip id="11516" depart="47.22" from="e31_side_n" to="e31_main_cw"/>
    <trip id="11548" depart="47.35" from="e22_n" to="e22_ce"/>
    <trip id="11607" depart="47.59" from="e32_main_e" to="e32_main_cw"/>
    <trip id="11717" depart="48.04" from="e14_s" to="e14_ce"/>
    <trip id="11768" depart="48.25" from="e44_n" to="e44_cs"/>
    <trip id="11772" depart="48.27" from="e32_side_s" to="e32_side_cn"/>
    <trip id="11812" depart="48.43" from="e45_e" to="e45_cn"/>
    <trip id="11820" depart="48.46" from="e24_e" to="e24_cw"/>
    <trip id="11833" depart="48.52" from="e42_w2cw" to="e42_ce2e"/>
    <trip id="11840" depart="48.54" from="e21_w" to="e21_cs"/>
    <trip id="11924" depart="48.89" from="e34_main_w" to="e34_main_ce"/>
    <trip id="11963" depart="49.05" from="e33_main_e" to="e33_main_cw"/>
    <trip id="11979" depart="49.11" from="e34_side_s" to="e34_side_cn"/>
    <trip id="11985" depart="49.14" from="e14_e" to="e14_cw"/>
    <trip id="12009" depart="49.24" from="e25_s" to="e25_ce"/>
    <trip id="12011" depart="49.25" from="e41_w" to="e41_cs"/>
    <trip id="12041" depart="49.37" from="e24_n" to="e24_ce"/>
    <trip id="12054" depart="49.42" from="e32_side_n" to="e32_side_cs"/>
    <trip id="12083" depart="49.54" from="e33_main_w" to="e33_side_cn"/>
    <trip id="12166" depart="49.88" from="e25_s" to="e25_cw"/>
    <trip id="12207" depart="50.05" from="e24_n" to="e24_ce"/>
    <trip id="12216" depart="50.09" from="e41_w" to="e41_cs"/>
    <trip id="12217" depart="50.09" from="e22_w" to="e22_ce"/>
    <trip id="12229" depart="50.14" from="e42_cw2ce" to="e42_ce2e"/>
    <trip id="12243" depart="50.20" from="e43_s" to="e43_ce"/>
    <trip id="12319" depart="50.51" from="e22_w" to="e22_ce"/>
    <trip id="12342" depart="50.60" from="e25_n" to="e25_cs.35"/>
    <trip id="12410" depart="50.88" from="e22_e" to="e22_cs"/>
    <trip id="12414" depart="50.90" from="e43_s" to="e43_ce"/>
    <trip id="12438" depart="51.00" from="e45_w" to="e45_cs"/>
    <trip id="12448" depart="51.04" from="e45_w" to="e45_cn"/>
    <trip id="12563" depart="51.51" from="e32_main_w" to="e32_side_cs"/>
    <trip id="12592" depart="51.63" from="e23_e" to="e23_cn"/>
    <trip id="12625" depart="51.76" from="e12_e" to="e12_cw"/>
    <trip id="12652" depart="51.87" from="e45_e" to="e45_cn"/>
    <trip id="12675" depart="51.97" from="e34_main_e" to="e34_main_cw"/>
    <trip id="12676" depart="51.97" from="e25_w" to="e25_ce"/>
    <trip id="12721" depart="52.16" from="e15_ne" to="e15_cs"/>
    <trip id="12803" depart="52.49" from="e13_w" to="e13_ce"/>
    <trip id="12821" depart="52.57" from="e15_ne" to="e15_cs"/>
    <trip id="12894" depart="52.87" from="e43_w" to="e43_cs"/>
    <trip id="12966" depart="53.16" from="e15_ne" to="e15_cs"/>
    <trip id="12975" depart="53.20" from="e21_w" to="e21_ce"/>
    <trip id="13078" depart="53.62" from="e45_w" to="e45_cn"/>
    <trip id="13080" depart="53.63" from="e42_e2ce" to="e42_ce2n"/>
    <trip id="13137" depart="53.86" from="e41_s" to="e41_cw"/>
    <trip id="13184" depart="54.05" from="e23_w" to="e23_cs"/>
    <trip id="13193" depart="54.09" from="e42_e2ce" to="e42_cw2w"/>
    <trip id="13196" depart="54.10" from="e31_main_e" to="e31_side_cn"/>
    <trip id="13199" depart="54.12" from="e43_n" to="e43_cs"/>
    <trip id="13232" depart="54.25" from="e31_side_n" to="e31_main_cw"/>
    <trip id="13296" depart="54.51" from="e32_side_s" to="e32_main_ce"/>
    <trip id="13312" depart="54.58" from="e24_w" to="e24_ce"/>
    <trip id="13313" depart="54.58" from="e31_side_n" to="e31_main_ce"/>
    <trip id="13340" depart="54.69" from="e14_w" to="e14_ce"/>
    <trip id="13347" depart="54.72" from="e43_e" to="e43_cw"/>
    <trip id="13357" depart="54.76" from="e42_n2ce" to="e42_ce2e"/>
    <trip id="13376" depart="54.84" from="e41_s" to="e41_cw"/>
    <trip id="13404" depart="54.96" from="e11_w" to="e11_ce"/>
    <trip id="13408" depart="54.97" from="e24_s" to="e24_ce"/>
    <trip id="13440" depart="55.10" from="e43_w" to="e43_ce"/>
    <trip id="13506" depart="55.37" from="e42_e2ce" to="e42_cw2w"/>
    <trip id="13525" depart="55.45" from="e33_side_n" to="e33_main_cw"/>
    <trip id="13530" depart="55.47" from="e21_s" to="e21_ce"/>
    <trip id="13555" depart="55.58" from="e34_main_w" to="e34_side_cs"/>
    <trip id="13603" depart="55.77" from="e25_w" to="E0"/>
    <trip id="13717" depart="56.24" from="e35_side_s" to="e35_side_cn"/>
    <trip id="13730" depart="56.29" from="e31_side_n" to="e31_main_cw"/>
    <trip id="13732" depart="56.30" from="e21_w" to="e21_cn"/>
    <trip id="13740" depart="56.33" from="e22_s" to="e22_ce"/>
    <trip id="13894" depart="56.97" from="e35_main_w" to="e35_main_ce"/>
    <trip id="13935" depart="57.13" from="e11_e" to="e11_cw"/>
    <trip id="13944" depart="57.17" from="e34_main_e" to="e34_main_cw"/>
    <trip id="13963" depart="57.25" from="e35_side_s" to="e35_side_cn"/>
    <trip id="13969" depart="57.27" from="e41_n" to="e41_cw"/>
    <trip id="14003" depart="57.41" from="e42_n2ce" to="e42_ce2e"/>
    <trip id="14018" depart="57.47" from="e31_main_w" to="e31_side_cs"/>