<?xml version="1.0" encoding="UTF-8"?>

<!-- generated on 2026-01-25T13:26:20.475434+01:00 by Eclipse SUMO duarouter 1.25.0
<duarouterConfiguration xmlns:xsi="http://www.w3.org/2001/XMLSchema-instance" xsi:noNamespaceSchemaLocation="http://sumo.dlr.de/xsd/duarouterConfiguration.xsd">

    <input>
        <net-file value="/Users/wagnertamas/Documents/Munka/cikkek/AI_agens_konyvtar/support/intergreen_matrix_calculator/data/mega_catalogue_v2.net.xml"/>
        <route-files value="/Users/wagnertamas/Documents/Munka/cikkek/AI_agens_konyvtar/support/intergreen_matrix_calculator/data/runs/proc_1/random_traffic.rou.xml"/>
    </input>

    <output>
        <output-file value="/Users/wagnertamas/Documents/Munka/cikkek/AI_agens_konyvtar/support/intergreen_matrix_calculator/data/runs/proc_1/random_traffic.rou.xml.tmp"/>
        <alternatives-output value="NUL"/>
        <write-trips value="true"/>
    </output>

    <processing>
        <routing-threads value="6"/>
        <routing-algorithm value="CH"/>
    </processing>

    <time>
        <begin value="0"/>
        <end value="3600.0"/>
    </time>

    <report>
        <no-warnings value="true"/>
        <ignore-errors value="true"/>
        <no-step-log value="true"/>
    </report>

</duarouterConfiguration>
-->

<routes xmlns:xsi="http://www.w3.org/2001/XMLSchema-instance" xsi:noNamespaceSchemaLocation="http://sumo.dlr.de/xsd/routes_file.xsd">
    <trip id="56" depart="0.24" from="e43_w" to="e43_ce"/>
    <trip id="78" depart="0.33" from="e21_n" to="e21_ce"/>
    <trip id="88" depart="0.37" from="e25_cs" to="e25_cs.35"/>
    <trip id="106" depart="0.45" from="e45_e" to="e45_cw"/>
    <trip id="118" depart="0.50" from="e33_main_e" to="e33_main_cw"/>
    <trip id="228" depart="0.96" from="e22_e" to="e22_cw"/>
    <trip id="242" depart="1.02" from="e21_n" to="e21_ce"/>
    <trip id="279" depart="1.17" from="e42_s2cw" to="e42_ce2e"/>
    <trip id="321" depart="1.35" from="e25_w" to="e25_ce"/>
    <trip id="334" depart="1.40" from="e33_side_n" to="e33_main_cw"/>
    <trip id="358" depart="1.50" from="e45_e" to="e45_cw"/>
    <trip id="365" depart="1.53" from="e23_s" to="e23_ce"/>
    <trip id="396" depart="1.66" from="e22_n" to="e22_cs"/>
    <trip id="400" depart="1.68" from="e32_main_w" to="e32_main_ce"/>
    <trip id="405" depart="1.70" from="e35_side_s" to="e35_main_ce"/>
    <trip id="435" depart="1.83" from="e21_w" to="e21_cs"/>
    <trip id="452" depart="1.90" from="e33_side_s" to="e33_main_cw"/>
    <trip id="542" depart="2.28" from="e32_side_s" to="e32_main_cw"/>
    <trip id="587" depart="2.47" from="e32_side_s" to="e32_side_cn"/>
    <trip id="611" depart="2.57" from="e22_w" to="e22_ce"/>
    <trip id="635" depart="2.67" from="e43_w" to="e43_ce"/>
    <trip id="646" depart="2.71" from="e23_w" to="e23_cs"/>
    <trip id="647" depart="2.72" from="e15_nw" to="e15_cs"/>
    <trip id="665" depart="2.79" from="e45_e" to="e45_cs"/>
    <trip id="702" depart="2.95" from="e31_side_s" to="e31_main_cw"/>
    <trip id="739" depart="3.10" from="e45_s" to="e45_ce"/>
    <trip id="802" depart="3.37" from="e12_w" to="e12_ce"/>
    <trip id="803" depart="3.37" from="e25_n" to="e25_cw"/>
    <trip id="817" depart="3.43" from="e31_side_n" to="e31_main_ce"/>
    <trip id="839" depart="3.52" from="e25_w" to="e25_cn"/>
    <trip id="852" depart="3.58" from="e41_s" to="e41_cn"/>
    <trip id="855" depart="3.59" from="e33_side_n" to="e33_main_cw"/>
    <trip id="873" depart="3.67" from="e22_s" to="e22_cn"/>
    <trip id="875" depart="3.67" from="e23_e" to="e23_cn"/>
    <trip id="881" depart="3.70" from="e22_s" to="e22_cn"/>
    <trip id="963" depart="4.04" from="e43_e" to="e43_cw"/>
    <trip id="992" depart="4.17" from="e43_n" to="e43_cw"/>
    <trip id="1022" depart="4.29" from="e31_side_n" to="e31_main_ce"/>
    <trip id="1070" depart="4.49" from="e43_e" to="e43_cn"/>
    <trip id="1121" depart="4.71" from="e42_e2ce" to="e42_cw2w"/>
    <trip id="1153" depart="4.84" from="e32_side_s" to="e32_side_cn"/>
    <trip id="1177" depart="4.94" from="e41_e" to="e41_cw"/>
    <trip id="1183" depart="4.97" from="e33_main_e" to="e33_main_cw"/>
    <trip id="1188" depart="4.99" from="e13_e" to="e13_cw"/>
    <trip id="1201" depart="5.04" from="e31_main_w" to="e31_main_ce"/>
    <trip id="1291" depart="5.42" from="e31_side_n" to="e31_main_cw"/>
    <trip id="1297" depart="5.45" from="e45_s" to="e45_cw"/>
    <trip id="1315" depart="5.52" from="e35_main_e" to="e35_side_cn"/>
    <trip id="1371" depart="5.76" from="e13_s" to="e13_cw"/>
    <trip id="1375" depart="5.77" from="e22_e" to="e22_cw"/>
    <trip id="1410" depart="5.92" from="e15_ne" to="e15_cs"/>
    <trip id="1419" depart="5.96" from="e41_w" to="e41_cs"/>
    <trip id="1439" depart="6.04" from="e32_side_n" to="e32_main_cw"/>
    <trip id="1451" depart="6.09" from="e42_s2cw" to="e42_cw2w"/>
    <trip id="1484" depart="6.23" from="e22_s" to="e22_cw"/>
    <trip id="1489" depart="6.25" from="e33_main_e" to="e33_main_cw"/>
    <trip id="1510" depart="6.34" from="e21_n" to="e21_cw"/>
    <trip id="1525" depart="6.40" from="e45_s" to="e45_cn"/>
    <trip id="1538" depart="6.46" from="e44_w" to="e44_ce"/>
    <trip id="1557" depart="6.54" from="e15_nw" to="e15_cs"/>
    <trip id="1578" depart="6.63" from="e34_main_e" to="e34_side_cn"/>
    <trip id="1605" depart="6.74" from="e24_w" to="e24_ce"/>
    <trip id="1674" depart="7.03" from="e13_w" to="e13_ce"/>
    <trip id="1675" depart="7.03" from="e15_s" to="e15_cnw"/>
    <trip id="1686" depart="7.08" from="e21_w" to="e21_cn"/>
    <trip id="1713" depart="7.19" from="e22_e" to="e22_cw"/>
    <trip id="1763" depart="7.40" from="e31_main_e" to="e31_main_cw"/>
    <trip id="1828" depart="7.68" from="e23_n" to="e23_cs"/>
    <trip id="1834" depart="7.70" from="e33_main_w" to="e33_side_cn"/>
    <trip id="1884" depart="7.91" from="e42_w2cw" to="e42_cw2s"/>
    <trip id="1912" depart="8.03" from="e32_main_w" to="e32_main_ce"/>
    <trip id="1930" depart="8.11" from="e25_w" to="e25_cn"/>
    <trip id="1943" depart="8.16" from="e14_s" to="e14_cw"/>
    <trip id="1985" depart="8.34" from="e13_s" to="e13_cw"/>
    <trip id="1992" depart="8.37" from="e34_main_e" to="e34_side_cn"/>
    <trip id="2042" depart="8.58" from="e41_n" to="e41_ce"/>
    <trip id="2063" depart="8.66" from="e34_side_n" to="e34_main_cw"/>
    <trip id="2068" depart="8.69" from="e43_s" to="e43_ce"/>
    <trip id="2141" depart="8.99" from="e33_main_e" to="e33_side_cn"/>
    <trip id="2147" depart="9.02" from="e22_e" to="e22_cs"/>
    <trip id="2150" depart="9.03" from="e25_w" to="E0"/>
    <trip id="2152" depart="9.04" from="e25_w" to="E0"/>
    <trip id="2155" depart="9.05" from="e24_e" to="e24_cs"/>
    <trip id="2158" depart="9.06" from="e24_n" to="e24_ce"/>
    <trip id="2166" depart="9.10" from="e33_side_s" to="e33_main_cw"/>
    <trip id="2181" depart="9.16" from="e42_s2cw" to="e42_ce2e"/>
    <trip id="2209" depart="9.28" from="e41_e" to="e41_cw"/>
    <trip id="2215" depart="9.30" from="e15_nw" to="e15_cne"/>
    <trip id="2261" depart="9.50" from="e23_e" to="e23_cw"/>
    <trip id="2357" depart="9.90" from="e33_main_w" to="e33_side_cn"/>
    <trip id="2365" depart="9.93" from="e45_w" to="e45_cs"/>
    <trip id="2372" depart="9.96" from="e24_w" to="e24_cs"/>
    <trip id="2457" depart="10.32" from="e31_side_s" to="e31_side_cn"/>
    <trip id="2499" depart="10.50" from="e35_side_s" to="e35_main_ce"/>
    <trip id="2505" depart="10.52" from="e41_s" to="e41_cn"/>
    <trip id="2545" depart="10.69" from="e25_w" to="e25_cn"/>
    <trip id="2596" depart="10.90" from="e24_n" to="e24_ce"/>
    <trip id="2671" depart="11.22" from="e35_side_s" to="e35_side_cn"/>
    <trip id="2756" depart="11.58" from="e41_w" to="e41_ce"/>
    <trip id="2788" depart="11.71" from="e41_w" to="e41_ce"/>
    <trip id="2811" depart="11.81" from="e33_side_s" to="e33_main_cw"/>
    <trip id="2842" depart="11.94" from="e41_w" to="e41_cs"/>
    <trip id="2859" depart="12.01" from="e31_main_e" to="e31_side_cn"/>
    <trip id="2993" depart="12.57" from="e41_n" to="e41_ce"/>
    <trip id="3049" depart="12.81" from="e12_e" to="e12_cs"/>
    <trip id="3079" depart="12.93" from="e23_w" to="e23_cs"/>
    <trip id="3089" depart="12.97" from="e24_e" to="e24_cn"/>
    <trip id="3181" depart="13.36" from="e42_e2ce" to="e42_ce2n"/>
    <trip id="3206" depart="13.47" from="e24_s" to="e24_cw"/>
    <trip id="3225" depart="13.55" from="e34_side_s" to="e34_side_cn"/>
    <trip id="3226" depart="13.55" from="e35_main_w" to="e35_main_ce"/>
    <trip id="3247" depart="13.64" from="e22_e" to="e22_cw"/>
    <trip id="3282" depart="13.78" from="e24_e" to="e24_cn"/>
    <trip id="3321" depart="13.95" from="e15_nw" to="e15_cne"/>
    <trip id="3351" depart="14.07" from="e33_main_e" to="e33_main_cw"/>
    <trip id="3382" depart="14.20" from="e21_n" to="e21_cw"/>
    <trip id="3383" depart="14.21" from="e23_n" to="e23_cs"/>
    <trip id="3390" depart="14.24" from="e13_w" to="e13_ce"/>
    <trip id="3409" depart="14.32" from="e24_w" to="e24_cs"/>
    <trip id="3460" depart="14.53" from="e25_w" to="e25_cn"/>
    <trip id="3481" depart="14.62" from="e43_s" to="e43_cn"/>
    <trip id="3490" depart="14.66" from="e25_s" to="e25_cn"/>
    <trip id="3570" depart="14.99" from="e42_e2ce" to="e42_ce2n"/>
    <trip id="3613" depart="15.17" from="e33_main_e" to="e33_side_cn"/>
    <trip id="3652" depart="15.34" from="e42_n2ce" to="e42_cw2w"/>
    <trip id="3656" depart="15.36" from="e34_main_w" to="e34_side_cs"/>
    <trip id="3703" depart="15.55" from="e23_e" to="e23_cw"/>
    <trip id="3726" depart="15.65" from="e15_s" to="e15_cnw"/>
    <trip id="3740" depart="15.71" from="e41_s" to="e41_ce"/>
    <trip id="3756" depart="15.78" from="e33_side_s" to="e33_main_ce"/>
    <trip id="3798" depart="15.95" from="e35_main_e" to="e35_main_cw"/>
    <trip id="3828" depart="16.08" from="e41_n" to="e41_ce"/>
    <trip id="3853" depart="16.18" from="e34_side_s" to="e34_side_cn"/>
    <trip id="3903" depart="16.39" from="e25_s" to="e25_cn"/>
    <trip id="3918" depart="16.46" from="e31_side_n" to="e31_main_ce"/>
    <trip id="3971" depart="16.68" from="e23_w" to="e23_ce"/>
    <trip id="3973" depart="16.69" from="e35_main_e" to="e35_main_cw"/>
    <trip id="4011" depart="16.85" from="e33_main_e" to="e33_side_cs"/>
    <trip id="4176" depart="17.54" from="e35_main_w" to="e35_main_ce"/>
    <trip id="4213" depart="17.69" from="e15_s" to="e15_cnw"/>
    <trip id="4224" depart="17.74" from="e13_w" to="e13_cs"/>
    <trip id="4249" depart="17.85" from="e22_w" to="e22_ce"/>
    <trip id="4324" depart="18.16" from="e15_nw" to="e15_cne"/>
    <trip id="4330" depart="18.19" from="e12_w" to="e12_cs"/>
    <trip id="4358" depart="18.30" from="e13_w" to="e13_ce"/>
    <trip id="4361" depart="18.32" from="e44_n" to="e44_ce"/>
    <trip id="4388" depart="18.43" from="e35_side_s" to="e35_main_ce"/>
    <trip id="4406" depart="18.51" from="e12_w" to="e12_cs"/>
    <trip id="4460" depart="18.73" from="e23_n" to="e23_cs"/>
    <trip id="4486" depart="18.84" from="e33_side_n" to="e33_side_cs"/>
    <trip id="4527" depart="19.01" from="e35_side_s" to="e35_side_cn"/>
    <trip id="4577" depart="19.22" from="e45_n" to="e45_cw"/>
    <trip id="4602" depart="19.33" from="e33_side_n" to="e33_side_cs"/>
    <trip id="4617" depart="19.39" from="e45_s" to="e45_cw"/>
    <trip id="4640" depart="19.49" from="e33_side_n" to="e33_main_ce"/>
    <trip id="4666" depart="19.60" from="e14_e" to="e14_cw"/>
    <trip id="4687" depart="19.69" from="e15_ne" to="e15_cnw"/>
    <trip id="4704" depart="19.76" from="e21_n" to="e21_cw"/>
    <trip id="4736" depart="19.89" from="e31_side_s" to="e31_main_ce"/>
    <trip id="4798" depart="20.15" from="e22_w" to="e22_cn"/>
    <trip id="4930" depart="20.71" from="e44_w" to="e44_ce"/>
    <trip id="5029" depart="21.12" from="e25_n" to="e25_cs.35"/>
    <trip id="5050" depart="21.21" from="e23_e" to="e23_cw"/>
    <trip id="5069" depart="21.29" from="e32_side_n" to="e32_main_ce"/>
    <trip id="5089" depart="21.37" from="e22_s" to="e22_cw"/>
    <trip id="5093" depart="21.39" from="e43_s" to="e43_ce"/>
    <trip id="5100" depart="21.42" from="e43_e" to="e43_cw"/>
    <trip id="5104" depart="21.44" from="e33_main_e" to="e33_main_cw"/>
    <trip id="5144" depart="21.60" from="e25_n" to="e25_ce"/>
    <trip id="5196" depart="21.82" from="e15_ne" to="e15_cs"/>
    <trip id="5304" depart="22.28" from="e14_s" to="e14_cw"/>
    <trip id="5422" depart="22.77" from="e41_n" to="e41_cw"/>
    <trip id="5435" depart="22.83" from="e13_s" to="e13_cw"/>
    <trip id="5502" depart="23.11" from="e22_e" to="e22_cs"/>
    <trip id="5546" depart="23.29" from="e23_e" to="e23_cw"/>
    <trip id="5559" depart="23.35" from="e33_side_s" to="e33_main_cw"/>
    <trip id="5568" depart="23.39" from="e42_w2cw" to="e42_cw2s"/>
    <trip id="5571" depart="23.40" from="e44_w" to="e44_ce"/>
    <trip id="5581" depart="23.44" from="e11_e" to="e11_cs"/>
    <trip id="5602" depart="23.53" from="e22_e" to="e22_cn"/>
    <trip id="5622" depart="23.61" from="e23_e" to="e23_cw"/>
    <trip id="5629" depart="23.64" from="e41_n" to="e41_cs"/>
    <trip id="5643" depart="23.70" from="e34_side_s" to="e34_main_ce"/>
    <trip id="5657" depart="23.76" from="e32_side_n" to="e32_side_cs"/>
    <trip id="5677" depart="23.84" from="e41_n" to="e41_ce"/>
    <trip id="5682" depart="23.86" from="e14_w" to="e14_cs"/>
    <trip id="5683" depart="23.87" from="e41_n" to="e41_cs"/>
    <trip id="5687" depart="23.89" from="e41_s" to="e41_cn"/>
    <trip id="5691" depart="23.90" from="e23_n" to="e23_cs"/>
    <trip id="5716" depart="24.01" from="e14_w" to="e14_cs"/>
    <trip id="5727" depart="24.05" from="e25_w" to="e25_cs.35"/>
    <trip id="5737" depart="24.10" from="e41_w" to="e41_cs"/>
    <trip id="5756" depart="24.18" from="e21_w" to="e21_ce"/>
    <trip id="5822" depart="24.45" from="e33_main_w" to="e33_side_cs"/>
    <trip id="5842" depart="24.54" from="e15_s" to="e15_cne"/>
    <trip id="5890" depart="24.74" from="e41_e" to="e41_cw"/>
    <trip id="5912" depart="24.83" from="e41_w" to="e41_ce"/>
    <trip id="5956" depart="25.02" from="e42_e2ce" to="e42_cw2s"/>
    <trip id="6033" depart="25.34" from="e15_nw" to="e15_cne"/>
    <trip id="6069" depart="25.49" from="e44_n" to="e44_cs"/>
    <trip id="6073" depart="25.51" from="e23_n" to="e23_cw"/>
    <trip id="6121" depart="25.71" from="e24_w" to="e24_cs"/>
    <trip id="6124" depart="25.72" from="e33_main_e" to="e33_side_cn"/>
    <trip id="6237" depart="26.20" from="e45_n" to="e45_ce"/>
    <trip id="6263" depart="26.30" from="e34_side_n" to="e34_side_cs"/>
    <trip id="6283" depart="26.39" from="e13_s" to="e13_cw"/>
    <trip id="6296" depart="26.44" from="e15_ne" to="e15_cnw"/>
    <trip id="6323" depart="26.56" from="e25_w" to="e25_cs.35"/>
    <trip id="6373" depart="26.77" from="e41_n" to="e41_cs"/>
    <trip id="6379" depart="26.79" from="e22_n" to="e22_cw"/>
    <trip id="6480" depart="27.22" from="e24_s" to="e24_ce"/>
    <trip id="6577" depart="27.62" from="e41_n" to="e41_cw"/>
    <trip id="6595" depart="27.70" from="e43_w" to="e43_ce"/>
    <trip id="6632" depart="27.85" from="e12_s" to="e12_cw"/>
    <trip id="6646" depart="27.91" from="e22_e" to="e22_cn"/>
    <trip id="6731" depart="28.27" from="e42_e2ce" to="e42_cw2s"/>
    <trip id="6773" depart="28.45" from="e31_main_w" to="e31_main_ce"/>
    <trip id="6841" depart="28.73" from="e45_s" to="e45_cw"/>
    <trip id="6888" depart="28.93" from="e34_main_w" to="e34_side_cs"/>
    <trip id="6896" depart="28.96" from="e13_w" to="e13_cs"/>
    <trip id="6929" depart="29.10" from="e31_main_w" to="e31_side_cs"/>
    <trip id="6972" depart="29.28" from="e41_n" to="e41_cs"/>
    <trip id="6988" depart="29.35" from="e23_s" to="e23_cn"/>
    <trip id="7027" depart="29.51" from="e15_nw" to="e15_cs"/>
    <trip id="7030" depart="29.53" from="e32_main_w" to="e32_main_ce"/>
    <trip id="7031" depart="29.53" from="e42_w2cw" to="e42_ce2e"/>
    <trip id="7041" depart="29.57" from="e25_w" to="e25_cs.35"/>
    <trip id="7090" depart="29.78" from="e22_s" to="e22_cn"/>
    <trip id="7139" depart="29.98" from="e43_n" to="e43_cs"/>
    <trip id="7173" depart="30.13" from="e35_main_w" to="e35_main_ce"/>
    <trip id="7210" depart="30.28" from="e11_e" to="e11_cs"/>
    <trip id="7223" depart="30.34" from="e22_s" to="e22_cn"/>
    <trip id="7235" depart="30.39" from="e31_side_n" to="e31_side_cs"/>
    <trip id="7282" depart="30.58" from="e24_e" to="e24_cs"/>
    <trip id="7304" depart="30.68" from="e33_main_e" to="e33_side_cn"/>
    <trip id="7322" depart="30.75" from="e22_e" to="e22_cn"/>
    <trip id="7422" depart="31.17" from="e41_w" to="e41_cs"/>
    <trip id="7439" depart="31.24" from="e42_w2cw" to="e42_ce2n"/>
    <trip id="7448" depart="31.28" from="e42_n2ce" to="e42_ce2e"/>
    <trip id="7561" depart="31.76" from="e24_s" to="e24_cn"/>
    <trip id="7651" depart="32.13" from="e25_n" to="e25_ce"/>
    <trip id="7669" depart="32.21" from="e43_e" to="e43_cn"/>
    <trip id="7696" depart="32.32" from="e21_s" to="e21_cw"/>
    <trip id="7718" depart="32.42" from="e45_n" to="e45_ce"/>
    <trip id="7741" depart="32.51" from="e42_n2ce" to="e42_cw2w"/>
    <trip id="7746" depart="32.53" from="e31_side_s" to="e31_main_ce"/>
    <trip id="7749" depart="32.55" from="e32_side_s" to="e32_main_cw"/>
    <trip id="7759" depart="32.59" from="e31_side_n" to="e31_main_cw"/>
    <trip id="7768" depart="32.63" from="e22_n" to="e22_cs"/>
    <trip id="7770" depart="32.63" from="e42_e2ce" to="e42_cw2w"/>
    <trip id="7826" depart="32.87" from="e23_w" to="e23_ce"/>
    <trip id="7859" depart="33.01" from="e41_n" to="e41_cw"/>
    <trip id="7877" depart="33.08" from="e22_n" to="e22_cs"/>
    <trip id="7911" depart="33.23" from="e42_n2ce" to="e42_ce2e"/>
    <trip id="7939" depart="33.34" from="e44_n" to="e44_cs"/>
    <trip id="7946" depart="33.37" from="e45_s" to="e45_cn"/>
    <trip id="7950" depart="33.39" from="e42_e2ce" to="e42_cw2s"/>
    <trip id="8001" depart="33.60" from="e31_side_s" to="e31_main_cw"/>
    <trip id="8022" depart="33.69" from="e22_n" to="e22_cs"/>
    <trip id="8057" depart="33.84" from="e12_w" to="e12_cs"/>
    <trip id="8060" depart="33.85" from="e41_n" to="e41_cw"/>
    <trip id="8091" depart="33.98" from="e34_side_s" to="e34_side_cn"/>
    <trip id="8103" depart="34.03" from="e31_side_s" to="e31_side_cn"/>
    <trip id="8143" depart="34.20" from="e41_n" to="e41_ce"/>
    <trip id="8245" depart="34.63" from="e41_n" to="e41_ce"/>
    <trip id="8248" depart="34.64" from="e32_main_e" to="e32_side_cn"/>
    <trip id="8272" depart="34.74" from="e25_s" to="e25_cn"/>
    <trip id="8284" depart="34.79" from="e43_n" to="e43_cw"/>
    <trip id="8398" depart="35.27" from="e34_main_e" to="e34_side_cn"/>
    <trip id="8426" depart="35.39" from="e12_w" to="e12_ce"/>
    <trip id="8429" depart="35.40" from="e24_s" to="e24_cw"/>
    <trip id="8522" depart="35.79" from="e11_e" to="e11_cs"/>
    <trip id="8564" depart="35.97" from="e25_n" to="e25_ce"/>
    <trip id="8570" depart="35.99" from="e14_e" to="e14_cw"/>
    <trip id="8580" depart="36.04" from="e31_side_s" to="e31_main_ce"/>
    <trip id="8581" depart="36.04" from="e45_s" to="e45_ce"/>
    <trip id="8590" depart="36.08" from="e45_w" to="e45_ce"/>
    <trip id="8597" depart="36.11" from="e42_n2ce" to="e42_cw2s"/>
    <trip id="8652" depart="36.34" from="e34_main_e" to="e34_side_cn"/>
    <trip id="8680" depart="36.46" from="e15_s" to="e15_cnw"/>
    <trip id="8698" depart="36.53" from="e21_n" to="e21_ce"/>
    <trip id="8754" depart="36.77" from="e24_e" to="e24_cw"/>
    <trip id="8763" depart="36.80" from="e25_w" to="E0"/>
    <trip id="8779" depart="36.87" from="e34_main_e" to="e34_side_cn"/>
    <trip id="8821" depart="37.05" from="e14_w" to="e14_cs"/>
    <trip id="8910" depart="37.42" from="e35_side_n" to="e35_side_cs"/>
    <trip id="8914" depart="37.44" from="e14_s" to="e14_ce"/>
    <trip id="8917" depart="37.45" from="e21_n" to="e21_ce"/>
    <trip id="8980" depart="37.72" from="e13_w" to="e13_ce"/>
    <trip id="9090" depart="38.18" from="e41_n" to="e41_ce"/>
    <trip id="9113" depart="38.27" from="e35_side_n" to="e35_main_cw"/>
    <trip id="9125" depart="38.33" from="e25_w" to="e25_cn"/>
    <trip id="9230" depart="38.77" from="e21_s" to="e21_ce"/>
    <trip id="9250" depart="38.85" from="e23_n" to="e23_cw"/>
    <trip id="9277" depart="38.96" from="e25_w" to="E0"/>
    <trip id="9294" depart="39.03" from="e32_side_s" to="e32_side_cn"/>
    <trip id="9322" depart="39.15" from="e42_s2cw" to="e42_cw2ce"/>
    <trip id="9383" depart="39.41" from="e42_w2cw" to="e42_ce2e"/>
    <trip id="9423" depart="39.58" from="e22_e" to="e22_cw"/>
    <trip id="9431" depart="39.61" from="e45_n" to="e45_cs"/>
    <trip id="9432" depart="39.61" from="e41_s" to="e41_ce"/>
    <trip id="9433" depart="39.62" from="e42_s2cw" to="e42_ce2e"/>
    <trip id="9434" depart="39.62" from="e41_n" to="e41_ce"/>
    <trip id="9457" depart="39.72" from="e12_s" to="e12_ce"/>
    <trip id="9508" depart="39.93" from="e25_w" to="E0"/>
    <trip id="9509" depart="39.94" from="e21_w" to="e21_cs"/>
    <trip id="9597" depart="40.31" from="e13_w" to="e13_ce"/>
    <trip id="9623" depart="40.42" from="e31_side_s" to="e31_main_cw"/>
    <trip id="9645" depart="40.51" from="e35_main_w" to="e35_side_cs"/>
    <trip id="9688" depart="40.69" from="e31_side_n" to="e31_main_cw"/>
    <trip id="9692" depart="40.71" from="e22_w" to="e22_cs"/>
    <trip id="9698" depart="40.73" from="e23_w" to="e23_cs"/>
    <trip id="9731" depart="40.87" from="e12_e" to="e12_cw"/>
    <trip id="9747" depart="40.94" from="e23_n" to="e23_cw"/>
    <trip id="9774" depart="41.05" from="e34_main_e" to="e34_main_cw"/>
    <trip id="9864" depart="41.43" from="e24_s" to="e24_cw"/>
    <trip id="9945" depart="41.77" from="e24_w" to="e24_cn"/>
    <trip id="9956" depart="41.82" from="e11_s" to="e11_cw"/>
    <trip id="10000" depart="42.00" from="e13_s" to="e13_cw"/>
    <trip id="10005" depart="42.02" from="e22_n" to="e22_cw"/>
    <trip id="10010" depart="42.04" from="e25_e" to="e25_cn"/>
    <trip id="10037" depart="42.16" from="e21_e" to="e21_cn"/>
    <trip id="10087" depart="42.37" from="e11_e" to="e11_cw"/>
    <trip id="10110" depart="42.46" from="e15_s" to="e15_cne"/>
    <trip id="10115" depart="42.48" from="e21_e" to="e21_cs"/>
    <trip id="10128" depart="42.54" from="e41_s" to="e41_cw"/>
    <trip id="10144" depart="42.60" from="e22_n" to="e22_cw"/>
    <trip id="10170" depart="42.71" from="e34_side_s" to="e34_main_ce"/>
    <trip id="10175" depart="42.73" from="e21_n" to="e21_cs"/>
    <trip id="10264" depart="43.11" from="e42_n2ce" to="e42_cw2s"/>
    <trip id="10322" depart="43.35" from="e32_side_s" to="e32_main_cw"/>
    <trip id="10324" depart="43.36" from="e43_n" to="e43_cs"/>
    <trip id="10398" depart="43.67" from="e31_main_w" to="e31_main_ce"/>
    <trip id="10413" depart="43.73" from="e25_e" to="e25_cn"/>
    <trip id="10497" depart="44.09" from="e41_s" to="e41_cw"/>
    <trip id="10510" depart="44.14" from="e11_e" to="e11_cw"/>
    <trip id="10530" depart="44.23" from="e22_s" to="e22_cw"/>
    <trip id="10543" depart="44.28" from="e31_main_w" to="e31_main_ce"/>
    <trip id="10619" depart="44.60" from="e25_n" to="e25_ce"/>
    <trip id="10657" depart="44.76" from="e33_main_e" to="e33_side_cs"/>
    <trip id="10713" depart="44.99" from="e24_w" to="e24_ce"/>
    <trip id="10729" depart="45.06" from="e23_s" to="e23_ce"/>
    <trip id="10738" depart="45.10" from="e42_n2ce" to="e42_ce2e"/>
    <trip id="10753" depart="45.16" from="e42_s2cw" to="e42_ce2e"/>
    <trip id="10765" depart="45.21" from="e21_n" to="e21_cs"/>
    <trip id="10839" depart="45.52" from="e21_e" to="e21_cw"/>
    <trip id="10932" depart="45.91" from="e32_side_n" to="e32_main_ce"/>
    <trip id="10942" depart="45.96" from="e22_w" to="e22_ce"/>
    <trip id="10982" depart="46.12" from="e42_cw2ce" to="e42_ce2e"/>
    <trip id="11005" depart="46.22" from="e21_s" to="e21_cn"/>
    <trip id="11034" depart="46.34" from="e42_w2cw" to="e42_ce2e"/>
    <trip id="11060" depart="46.45" from="e12_e" to="e12_cs"/>
    <trip id="11119" depart="46.70" from="e33_side_s" to="e33_main_cw"/>
    <trip id="11208" depart="47.07" from="e13_e" to="e13_cw"/>
    <trip id="11214" depart="47.10" from="e31_side_n" to="e31_main_ce"/>
    <trip id="11228" depart="47.16" from="e24_n" to="e24_cs"/>
    <trip id="11275" depart="47.35" from="e33_main_w" to="e33_main_ce"/>
    <trip id="11314" depart="47.52" from="e35_side_n" to="e35_main_cw"/>
    <trip id="11348" depart="47.66" from="e11_e" to="e11_cs"/>
    <trip id="11501" depart="48.30" from="e45_e" to="e45_cs"/>
    <trip id="11510" depart="48.34" from="e41_s" to="e41_cw"/>
    <trip id="11514" depart="48.36" from="e42_e2ce" to="e42_cw2s"/>
    <trip id="11516" depart="48.37" from="e31_side_n" to="e31_main_cw"/>
    <trip id="11548" depart="48.50" from="e22_n" to="e22_ce"/>
    <trip id="11607" depart="48.75" from="e32_main_e" to="e32_main_cw"/>
    <trip id="11717" depart="49.21" from="e14_s" to="e14_ce"/>
    <trip id="11768" depart="49.43" from="e44_n" to="e44_cs"/>
    <trip id="11772" depart="49.44" from="e32_side_s" to="e32_side_cn"/>
    <trip id="11812" depart="49.61" from="e45_e" to="e45_cn"/>
    <trip id="11820" depart="49.64" from="e24_e" to="e24_cw"/>
    <trip id="11833" depart="49.70" from="e42_w2cw" to="e42_ce2e"/>
    <trip id="11840" depart="49.73" from="e21_w" to="e21_cs"/>
    <trip id="11924" depart="50.08" from="e34_main_w" to="e34_main_ce"/>
    <trip id="11963" depart="50.24" from="e33_main_e" to="e33_main_cw"/>
    <trip id="11979" depart="50.31" from="e34_side_s" to="e34_side_cn"/>
    <trip id="11985" depart="50.34" from="e14_e" to="e14_cw"/>
    <trip id="12009" depart="50.44" from="e25_s" to="e25_ce"/>
    <trip id="12011" depart="50.45" from="e41_w" to="e41_cs"/>
    <trip id="12041" depart="50.57" from="e24_n" to="e24_ce"/>
    <trip id="12054" depart="50.63" from="e32_side_n" to="e32_side_cs"/>
    <trip id="12083" depart="50.75" from="e33_main_w" to="e33_side_cn"/>
    <trip id="12166" depart="51.10" from="e25_s" to="e25_cw"/>
    <trip id="12207" depart="51.27" from="e24_n" to="e24_ce"/>
    <trip id="12216" depart="51.31" from="e41_w" to="e41_cs"/>
    <trip id="12217" depart="51.31" from="e22_w" to="e22_ce"/>
    <trip id="12229" depart="51.36" from="e42_cw2ce" to="e42_ce2e"/>
    <trip id="12243" depart="51.42" from="e43_s" to="e43_ce"/>
    <trip id="12319" depart="51.74" from="e22_w" to="e22_ce"/>
    <trip id="12342" depart="51.84" from="e25_n" to="e25_cs.35"/>
    <trip id="12410" depart="52.12" from="e22_e" to="e22_cs"/>
    <trip id="12414" depart="52.14" from="e43_s" to="e43_ce"/>
    <trip id="12438" depart="52.24" from="e45_w" to="e45_cs"/>
    <trip id="12448" depart="52.28" from="e45_w" to="e45_cn"/>
    <trip id="12563" depart="52.76" from="e32_main_w" to="e32_side_cs"/>
    <trip id="12592" depart="52.89" from="e23_e" to="e23_cn"/>
    <trip id="12625" depart="53.02" from="e12_e" to="e12_cw"/>
    <trip id="12652" depart="53.14" from="e45_e" to="e45_cn"/>
    <trip id="12675" depart="53.23" from="e34_main_e" to="e34_main_cw"/>
    <trip id="12676" depart="53.24" from="e25_w" to="e25_ce"/>
    <trip id="12721" depart="53.43" from="e15_ne" to="e15_cs"/>
    <trip id="12803" depart="53.77" from="e13_w" to="e13_ce"/>
    <trip id="12821" depart="53.85" from="e15_ne" to="e15_cs"/>
    <trip id="12894" depart="54.15" from="e43_w" to="e43_cs"/>
    <trip id="12966" depart="54.46" from="e15_ne" to="e15_cs"/>
    <trip id="12975" depart="54.49" from="e21_w" to="e21_ce"/>
    <trip id="13078" depart="54.93" from="e45_w" to="e45_cn"/>
    <trip id="13080" depart="54.94" from="e42_e2ce" to="e42_ce2n"/>
    <trip id="13137" depart="55.18" from="e41_s" to="e41_cw"/>
    <trip id="13184" depart="55.37" from="e23_w" to="e23_cs"/>
    <trip id="13193" depart="55.41" from="e42_e2ce" to="e42_cw2w"/>
    <trip id="13196" depart="55.42" from="e31_main_e" to="e31_side_cn"/>
    <trip id="13199" depart="55.44" from="e43_n" to="e43_cs"/>
    <trip id="13232" depart="55.57" from="e31_side_n" to="e31_main_cw"/>
    <trip id="13296" depart="55.84" from="e32_side_s" to="e32_main_ce"/>
    <trip id="13312" depart="55.91" from="e24_w" to="e24_ce"/>
    <trip id="13313" depart="55.91" from="e31_side_n" to="e31_main_ce"/>
    <trip id="13340" depart="56.03" from="e14_w" to="e14_ce"/>
    <trip id="13347" depart="56.06" from="e43_e" to="e43_cw"/>
    <trip id="13357" depart="56.10" from="e42_n2ce" to="e42_ce2e"/>
    <trip id="13376" depart="56.18" from="e41_s" to="e41_cw"/>
    <trip id="13404" depart="56.30" from="e11_w" to="e11_ce"/>
    <trip id="13408" depart="56.31" from="e24_s" to="e24_ce"/>
    <trip id="13440" depart="56.45" from="e43_w" to="e43_ce"/>
    <trip id="13506" depart="56.73" from="e42_e2ce" to="e42_cw2w"/>
    <trip id="13525" depart="56.80" from="e33_side_n" to="e33_main_cw"/>
    <trip id="13530" depart="56.83" from="e21_s" to="e21_ce"/>
    <trip id="13555" depart="56.93" from="e34_main_w" to="e34_side_cs"/>
    <trip id="13603" depart="57.13" from="e25_w" to="E0"/>
    <trip id="13717" depart="57.61" from="e35_side_s" to="e35_side_cn"/>
    <trip id="13730" depart="57.67" from="e31_side_n" to="e31_main_cw"/>
    <trip id="13732" depart="57.67" from="e21_w" to="e21_cn"/>
    <trip id="13740" depart="57.71" from="e22_s" to="e22_ce"/>
    <trip id="13894" depart="58.35" from="e35_main_w" to="e35_main_ce"/>
    <trip id="13935" depart="58.53" from="e11_e" to="e11_cw"/>
    <trip id="13944" depart="58.56" from="e34_main_e" to="e34_main_cw"/>
    <trip id="13963" depart="58.64" from="e35_side_s" to="e35_side_cn"/>
    <trip id="13969" depart="58.67" from="e41_n" to="e41_cw"/>
    <trip id="14003" depart="58.81" from="e42_n2ce" to="e42_ce2e"/>
    <trip id="14018" depart="58.88" from="e31_main_w" to="e31_side_cs"/>