<?xml version="1.0" encoding="UTF-8"?>

<!-- generated on 2026-01-25T13:26:25.528905+01:00 by Eclipse SUMO duarouter 1.25.0
<duarouterConfiguration xmlns:xsi="http://www.w3.org/2001/XMLSchema-instance" xsi:noNamespaceSchemaLocation="http://sumo.dlr.de/xsd/duarouterConfiguration.xsd">

    <input>
        <net-file value="/Users/wagnertamas/Documents/Munka/cikkek/AI_agens_konyvtar/support/intergreen_matrix_calculator/data/mega_catalogue_v2.net.xml"/>
        <route-files value="/Users/wagnertamas/Documents/Munka/cikkek/AI_agens_konyvtar/support/intergreen_matrix_calculator/data/runs/proc_3/random_traffic.rou.xml"/>
    </input>

    <output>
        <output-file value="/Users/wagnertamas/Documents/Munka/cikkek/AI_agens_konyvtar/support/intergreen_matrix_calculator/data/runs/proc_3/random_traffic.rou.xml.tmp"/>
        <alternatives-output value="NUL"/>
        <write-trips value="true"/>
    </output>

    <processing>
        <routing-threads value="6"/>
        <routing-algorithm value="CH"/>
    </processing>

    <time>
        <begin value="0"/>
        <end value="3600.0"/>
    </time>

    <report>
        <no-warnings value="true"/>
        <ignore-errors value="true"/>
        <no-step-log value="true"/>
    </report>

</duarouterConfiguration>
-->

<routes xmlns:xsi="http://www.w3.org/2001/XMLSchema-instance" xsi:noNamespaceSchemaLocation="http://sumo.dlr.de/xsd/routes_file.xsd">
    <trip id="56" depart="0.17" from="e43_w" to="e43_ce"/>
    <trip id="78" depart="0.24" from="e21_n" to="e21_ce"/>
    <trip id="88" depart="0.27" from="e25_cs" to="e25_cs.35"/>
    <trip id="106" depart="0.33" from="e45_e" to="e45_cw"/>
    <trip id="118" depart="0.37" from="e33_main_e" to="e33_main_cw"/>
    <trip id="228" depart="0.71" from="e22_e" to="e22_cw"/>
    <trip id="242" depart="0.75" from="e21_n" to="e21_ce"/>
    <trip id="279" depart="0.86" from="e42_s2cw" to="e42_ce2e"/>
    <trip id="321" depart="1.00" from="e25_w" to="e25_ce"/>
    <trip id="334" depart="1.04" from="e33_side_n" to="e33_main_cw"/>
    <trip id="358" depart="1.11" from="e45_e" to="e45_cw"/>
    <trip id="365" depart="1.13" from="e23_s" to="e23_ce"/>
    <trip id="396" depart="1.23" from="e22_n" to="e22_cs"/>
    <trip id="400" depart="1.24" from="e32_main_w" to="e32_main_ce"/>
    <trip id="405" depart="1.26" from="e35_side_s" to="e35_main_ce"/>
    <trip id="435" depart="1.35" from="e21_w" to="e21_cs"/>
    <trip id="452" depart="1.40" from="e33_side_s" to="e33_main_cw"/>
    <trip id="542" depart="1.68" from="e32_side_s" to="e32_main_cw"/>
    <trip id="587" depart="1.82" from="e32_side_s" to="e32_side_cn"/>
    <trip id="611" depart="1.89" from="e22_w" to="e22_ce"/>
    <trip id="635" depart="1.97" from="e43_w" to="e43_ce"/>
    <trip id="646" depart="2.00" from="e23_w" to="e23_cs"/>
    <trip id="647" depart="2.01" from="e15_nw" to="e15_cs"/>
    <trip id="665" depart="2.06" from="e45_e" to="e45_cs"/>
    <trip id="702" depart="2.18" from="e31_side_s" to="e31_main_cw"/>
    <trip id="739" depart="2.29" from="e45_s" to="e45_ce"/>
    <trip id="802" depart="2.49" from="e12_w" to="e12_ce"/>
    <trip id="803" depart="2.49" from="e25_n" to="e25_cw"/>
    <trip id="817" depart="2.53" from="e31_side_n" to="e31_main_ce"/>
    <trip id="839" depart="2.60" from="e25_w" to="e25_cn"/>
    <trip id="852" depart="2.64" from="e41_s" to="e41_cn"/>
    <trip id="855" depart="2.65" from="e33_side_n" to="e33_main_cw"/>
    <trip id="873" depart="2.71" from="e22_s" to="e22_cn"/>
    <trip id="875" depart="2.71" from="e23_e" to="e23_cn"/>
    <trip id="881" depart="2.73" from="e22_s" to="e22_cn"/>
    <trip id="963" depart="2.99" from="e43_e" to="e43_cw"/>
    <trip id="992" depart="3.08" from="e43_n" to="e43_cw"/>
    <trip id="1022" depart="3.17" from="e31_side_n" to="e31_main_ce"/>
    <trip id="1070" depart="3.32" from="e43_e" to="e43_cn"/>
    <trip id="1121" depart="3.48" from="e42_e2ce" to="e42_cw2w"/>
    <trip id="1153" depart="3.57" from="e32_side_s" to="e32_side_cn"/>
    <trip id="1177" depart="3.65" from="e41_e" to="e41_cw"/>
    <trip id="1183" depart="3.67" from="e33_main_e" to="e33_main_cw"/>
    <trip id="1188" depart="3.68" from="e13_e" to="e13_cw"/>
    <trip id="1201" depart="3.72" from="e31_main_w" to="e31_main_ce"/>
    <trip id="1291" depart="4.00" from="e31_side_n" to="e31_main_cw"/>
    <trip id="1297" depart="4.02" from="e45_s" to="e45_cw"/>
    <trip id="1315" depart="4.08" from="e35_main_e" to="e35_side_cn"/>
    <trip id="1371" depart="4.25" from="e13_s" to="e13_cw"/>
    <trip id="1375" depart="4.26" from="e22_e" to="e22_cw"/>
    <trip id="1410" depart="4.37" from="e15_ne" to="e15_cs"/>
    <trip id="1419" depart="4.40" from="e41_w" to="e41_cs"/>
    <trip id="1439" depart="4.46" from="e32_side_n" to="e32_main_cw"/>
    <trip id="1451" depart="4.50" from="e42_s2cw" to="e42_cw2w"/>
    <trip id="1484" depart="4.60" from="e22_s" to="e22_cw"/>
    <trip id="1489" depart="4.62" from="e33_main_e" to="e33_main_cw"/>
    <trip id="1510" depart="4.68" from="e21_n" to="e21_cw"/>
    <trip id="1525" depart="4.73" from="e45_s" to="e45_cn"/>
    <trip id="1538" depart="4.77" from="e44_w" to="e44_ce"/>
    <trip id="1557" depart="4.83" from="e15_nw" to="e15_cs"/>
    <trip id="1578" depart="4.89" from="e34_main_e" to="e34_side_cn"/>
    <trip id="1605" depart="4.98" from="e24_w" to="e24_ce"/>
    <trip id="1674" depart="5.19" from="e13_w" to="e13_ce"/>
    <trip id="1675" depart="5.19" from="e15_s" to="e15_cnw"/>
    <trip id="1686" depart="5.23" from="e21_w" to="e21_cn"/>
    <trip id="1713" depart="5.31" from="e22_e" to="e22_cw"/>
    <trip id="1763" depart="5.47" from="e31_main_e" to="e31_main_cw"/>
    <trip id="1828" depart="5.67" from="e23_n" to="e23_cs"/>
    <trip id="1834" depart="5.69" from="e33_main_w" to="e33_side_cn"/>
    <trip id="1884" depart="5.84" from="e42_w2cw" to="e42_cw2s"/>
    <trip id="1912" depart="5.93" from="e32_main_w" to="e32_main_ce"/>
    <trip id="1930" depart="5.98" from="e25_w" to="e25_cn"/>
    <trip id="1943" depart="6.02" from="e14_s" to="e14_cw"/>
    <trip id="1985" depart="6.15" from="e13_s" to="e13_cw"/>
    <trip id="1992" depart="6.18" from="e34_main_e" to="e34_side_cn"/>
    <trip id="2042" depart="6.33" from="e41_n" to="e41_ce"/>
    <trip id="2063" depart="6.40" from="e34_side_n" to="e34_main_cw"/>
    <trip id="2068" depart="6.41" from="e43_s" to="e43_ce"/>
    <trip id="2141" depart="6.64" from="e33_main_e" to="e33_side_cn"/>
    <trip id="2147" depart="6.66" from="e22_e" to="e22_cs"/>
    <trip id="2150" depart="6.66" from="e25_w" to="E0"/>
    <trip id="2152" depart="6.67" from="e25_w" to="E0"/>
    <trip id="2155" depart="6.68" from="e24_e" to="e24_cs"/>
    <trip id="2158" depart="6.69" from="e24_n" to="e24_ce"/>
    <trip id="2166" depart="6.71" from="e33_side_s" to="e33_main_cw"/>
    <trip id="2181" depart="6.76" from="e42_s2cw" to="e42_ce2e"/>
    <trip id="2209" depart="6.85" from="e41_e" to="e41_cw"/>
    <trip id="2215" depart="6.87" from="e15_nw" to="e15_cne"/>
    <trip id="2261" depart="7.01" from="e23_e" to="e23_cw"/>
    <trip id="2357" depart="7.31" from="e33_main_w" to="e33_side_cn"/>
    <trip id="2365" depart="7.33" from="e45_w" to="e45_cs"/>
    <trip id="2372" depart="7.35" from="e24_w" to="e24_cs"/>
    <trip id="2457" depart="7.62" from="e31_side_s" to="e31_side_cn"/>
    <trip id="2499" depart="7.75" from="e35_side_s" to="e35_main_ce"/>
    <trip id="2505" depart="7.77" from="e41_s" to="e41_cn"/>
    <trip id="2545" depart="7.89" from="e25_w" to="e25_cn"/>
    <trip id="2596" depart="8.05" from="e24_n" to="e24_ce"/>
    <trip id="2671" depart="8.28" from="e35_side_s" to="e35_side_cn"/>
    <trip id="2756" depart="8.54" from="e41_w" to="e41_ce"/>
    <trip id="2788" depart="8.64" from="e41_w" to="e41_ce"/>
    <trip id="2811" depart="8.71" from="e33_side_s" to="e33_main_cw"/>
    <trip id="2842" depart="8.81" from="e41_w" to="e41_cs"/>
    <trip id="2859" depart="8.86" from="e31_main_e" to="e31_side_cn"/>
    <trip id="2993" depart="9.28" from="e41_n" to="e41_ce"/>
    <trip id="3049" depart="9.45" from="e12_e" to="e12_cs"/>
    <trip id="3079" depart="9.54" from="e23_w" to="e23_cs"/>
    <trip id="3089" depart="9.58" from="e24_e" to="e24_cn"/>
    <trip id="3181" depart="9.86" from="e42_e2ce" to="e42_ce2n"/>
    <trip id="3206" depart="9.94" from="e24_s" to="e24_cw"/>
    <trip id="3225" depart="10.00" from="e34_side_s" to="e34_side_cn"/>
    <trip id="3226" depart="10.00" from="e35_main_w" to="e35_main_ce"/>
    <trip id="3247" depart="10.07" from="e22_e" to="e22_cw"/>
    <trip id="3282" depart="10.17" from="e24_e" to="e24_cn"/>
    <trip id="3321" depart="10.30" from="e15_nw" to="e15_cne"/>
    <trip id="3351" depart="10.39" from="e33_main_e" to="e33_main_cw"/>
    <trip id="3382" depart="10.48" from="e21_n" to="e21_cw"/>
    <trip id="3383" depart="10.49" from="e23_n" to="e23_cs"/>
    <trip id="3390" depart="10.51" from="e13_w" to="e13_ce"/>
    <trip id="3409" depart="10.57" from="e24_w" to="e24_cs"/>
    <trip id="3460" depart="10.73" from="e25_w" to="e25_cn"/>
    <trip id="3481" depart="10.79" from="e43_s" to="e43_cn"/>
    <trip id="3490" depart="10.82" from="e25_s" to="e25_cn"/>
    <trip id="3570" depart="11.07" from="e42_e2ce" to="e42_ce2n"/>
    <trip id="3613" depart="11.20" from="e33_main_e" to="e33_side_cn"/>
    <trip id="3652" depart="11.32" from="e42_n2ce" to="e42_cw2w"/>
    <trip id="3656" depart="11.33" from="e34_main_w" to="e34_side_cs"/>
    <trip id="3703" depart="11.48" from="e23_e" to="e23_cw"/>
    <trip id="3726" depart="11.55" from="e15_s" to="e15_cnw"/>
    <trip id="3740" depart="11.59" from="e41_s" to="e41_ce"/>
    <trip id="3756" depart="11.64" from="e33_side_s" to="e33_main_ce"/>
    <trip id="3798" depart="11.77" from="e35_main_e" to="e35_main_cw"/>
    <trip id="3828" depart="11.87" from="e41_n" to="e41_ce"/>
    <trip id="3853" depart="11.94" from="e34_side_s" to="e34_side_cn"/>
    <trip id="3903" depart="12.10" from="e25_s" to="e25_cn"/>
    <trip id="3918" depart="12.15" from="e31_side_n" to="e31_main_ce"/>
    <trip id="3971" depart="12.31" from="e23_w" to="e23_ce"/>
    <trip id="3973" depart="12.32" from="e35_main_e" to="e35_main_cw"/>
    <trip id="4011" depart="12.43" from="e33_main_e" to="e33_side_cs"/>
    <trip id="4176" depart="12.95" from="e35_main_w" to="e35_main_ce"/>
    <trip id="4213" depart="13.06" from="e15_s" to="e15_cnw"/>
    <trip id="4224" depart="13.09" from="e13_w" to="e13_cs"/>
    <trip id="4249" depart="13.17" from="e22_w" to="e22_ce"/>
    <trip id="4324" depart="13.40" from="e15_nw" to="e15_cne"/>
    <trip id="4330" depart="13.42" from="e12_w" to="e12_cs"/>
    <trip id="4358" depart="13.51" from="e13_w" to="e13_ce"/>
    <trip id="4361" depart="13.52" from="e44_n" to="e44_ce"/>
    <trip id="4388" depart="13.60" from="e35_side_s" to="e35_main_ce"/>
    <trip id="4406" depart="13.66" from="e12_w" to="e12_cs"/>
    <trip id="4460" depart="13.83" from="e23_n" to="e23_cs"/>
    <trip id="4486" depart="13.91" from="e33_side_n" to="e33_side_cs"/>
    <trip id="4527" depart="14.03" from="e35_side_s" to="e35_side_cn"/>
    <trip id="4577" depart="14.19" from="e45_n" to="e45_cw"/>
    <trip id="4602" depart="14.27" from="e33_side_n" to="e33_side_cs"/>
    <trip id="4617" depart="14.31" from="e45_s" to="e45_cw"/>
    <trip id="4640" depart="14.38" from="e33_side_n" to="e33_main_ce"/>
    <trip id="4666" depart="14.46" from="e14_e" to="e14_cw"/>
    <trip id="4687" depart="14.53" from="e15_ne" to="e15_cnw"/>
    <trip id="4704" depart="14.58" from="e21_n" to="e21_cw"/>
    <trip id="4736" depart="14.68" from="e31_side_s" to="e31_main_ce"/>
    <trip id="4798" depart="14.87" from="e22_w" to="e22_cn"/>
    <trip id="4930" depart="15.28" from="e44_w" to="e44_ce"/>
    <trip id="5029" depart="15.59" from="e25_n" to="e25_cs.35"/>
    <trip id="5050" depart="15.65" from="e23_e" to="e23_cw"/>
    <trip id="5069" depart="15.71" from="e32_side_n" to="e32_main_ce"/>
    <trip id="5089" depart="15.78" from="e22_s" to="e22_cw"/>
    <trip id="5093" depart="15.79" from="e43_s" to="e43_ce"/>
    <trip id="5100" depart="15.81" from="e43_e" to="e43_cw"/>
    <trip id="5104" depart="15.82" from="e33_main_e" to="e33_main_cw"/>
    <trip id="5144" depart="15.95" from="e25_n" to="e25_ce"/>
    <trip id="5196" depart="16.11" from="e15_ne" to="e15_cs"/>
    <trip id="5304" depart="16.44" from="e14_s" to="e14_cw"/>
    <trip id="5422" depart="16.81" from="e41_n" to="e41_cw"/>
    <trip id="5435" depart="16.85" from="e13_s" to="e13_cw"/>
    <trip id="5502" depart="17.06" from="e22_e" to="e22_cs"/>
    <trip id="5546" depart="17.19" from="e23_e" to="e23_cw"/>
    <trip id="5559" depart="17.23" from="e33_side_s" to="e33_main_cw"/>
    <trip id="5568" depart="17.26" from="e42_w2cw" to="e42_cw2s"/>
    <trip id="5571" depart="17.27" from="e44_w" to="e44_ce"/>
    <trip id="5581" depart="17.30" from="e11_e" to="e11_cs"/>
    <trip id="5602" depart="17.37" from="e22_e" to="e22_cn"/>
    <trip id="5622" depart="17.43" from="e23_e" to="e23_cw"/>
    <trip id="5629" depart="17.45" from="e41_n" to="e41_cs"/>
    <trip id="5643" depart="17.49" from="e34_side_s" to="e34_main_ce"/>
    <trip id="5657" depart="17.54" from="e32_side_n" to="e32_side_cs"/>
    <trip id="5677" depart="17.60" from="e41_n" to="e41_ce"/>
    <trip id="5682" depart="17.61" from="e14_w" to="e14_cs"/>
    <trip id="5683" depart="17.62" from="e41_n" to="e41_cs"/>
    <trip id="5687" depart="17.63" from="e41_s" to="e41_cn"/>
    <trip id="5691" depart="17.64" from="e23_n" to="e23_cs"/>
    <trip id="5716" depart="17.72" from="e14_w" to="e14_cs"/>
    <trip id="5727" depart="17.75" from="e25_w" to="e25_cs.35"/>
    <trip id="5737" depart="17.78" from="e41_w" to="e41_cs"/>
    <trip id="5756" depart="17.84" from="e21_w" to="e21_ce"/>
    <trip id="5822" depart="18.05" from="e33_main_w" to="e33_side_cs"/>
    <trip id="5842" depart="18.11" from="e15_s" to="e15_cne"/>
    <trip id="5890" depart="18.26" from="e41_e" to="e41_cw"/>
    <trip id="5912" depart="18.33" from="e41_w" to="e41_ce"/>
    <trip id="5956" depart="18.46" from="e42_e2ce" to="e42_cw2s"/>
    <trip id="6033" depart="18.70" from="e15_nw" to="e15_cne"/>
    <trip id="6069" depart="18.81" from="e44_n" to="e44_cs"/>
    <trip id="6073" depart="18.83" from="e23_n" to="e23_cw"/>
    <trip id="6121" depart="18.98" from="e24_w" to="e24_cs"/>
    <trip id="6124" depart="18.98" from="e33_main_e" to="e33_side_cn"/>
    <trip id="6237" depart="19.33" from="e45_n" to="e45_ce"/>
    <trip id="6263" depart="19.42" from="e34_side_n" to="e34_side_cs"/>
    <trip id="6283" depart="19.48" from="e13_s" to="e13_cw"/>
    <trip id="6296" depart="19.52" from="e15_ne" to="e15_cnw"/>
    <trip id="6323" depart="19.60" from="e25_w" to="e25_cs.35"/>
    <trip id="6373" depart="19.76" from="e41_n" to="e41_cs"/>
    <trip id="6379" depart="19.77" from="e22_n" to="e22_cw"/>
    <trip id="6480" depart="20.09" from="e24_s" to="e24_ce"/>
    <trip id="6577" depart="20.39" from="e41_n" to="e41_cw"/>
    <trip id="6595" depart="20.44" from="e43_w" to="e43_ce"/>
    <trip id="6632" depart="20.56" from="e12_s" to="e12_cw"/>
    <trip id="6646" depart="20.60" from="e22_e" to="e22_cn"/>
    <trip id="6731" depart="20.87" from="e42_e2ce" to="e42_cw2s"/>
    <trip id="6773" depart="21.00" from="e31_main_w" to="e31_main_ce"/>
    <trip id="6841" depart="21.21" from="e45_s" to="e45_cw"/>
    <trip id="6888" depart="21.35" from="e34_main_w" to="e34_side_cs"/>
    <trip id="6896" depart="21.38" from="e13_w" to="e13_cs"/>
    <trip id="6929" depart="21.48" from="e31_main_w" to="e31_side_cs"/>
    <trip id="6972" depart="21.61" from="e41_n" to="e41_cs"/>
    <trip id="6988" depart="21.66" from="e23_s" to="e23_cn"/>
    <trip id="7027" depart="21.78" from="e15_nw" to="e15_cs"/>
    <trip id="7030" depart="21.79" from="e32_main_w" to="e32_main_ce"/>
    <trip id="7031" depart="21.80" from="e42_w2cw" to="e42_ce2e"/>
    <trip id="7041" depart="21.83" from="e25_w" to="e25_cs.35"/>
    <trip id="7090" depart="21.98" from="e22_s" to="e22_cn"/>
    <trip id="7139" depart="22.13" from="e43_n" to="e43_cs"/>
    <trip id="7173" depart="22.24" from="e35_main_w" to="e35_main_ce"/>
    <trip id="7210" depart="22.35" from="e11_e" to="e11_cs"/>
    <trip id="7223" depart="22.39" from="e22_s" to="e22_cn"/>
    <trip id="7235" depart="22.43" from="e31_side_n" to="e31_side_cs"/>
    <trip id="7282" depart="22.57" from="e24_e" to="e24_cs"/>
    <trip id="7304" depart="22.64" from="e33_main_e" to="e33_side_cn"/>
    <trip id="7322" depart="22.70" from="e22_e" to="e22_cn"/>
    <trip id="7422" depart="23.01" from="e41_w" to="e41_cs"/>
    <trip id="7439" depart="23.06" from="e42_w2cw" to="e42_ce2n"/>
    <trip id="7448" depart="23.09" from="e42_n2ce" to="e42_ce2e"/>
    <trip id="7561" depart="23.44" from="e24_s" to="e24_cn"/>
    <trip id="7651" depart="23.72" from="e25_n" to="e25_ce"/>
    <trip id="7669" depart="23.77" from="e43_e" to="e43_cn"/>
    <trip id="7696" depart="23.86" from="e21_s" to="e21_cw"/>
    <trip id="7718" depart="23.93" from="e45_n" to="e45_ce"/>
    <trip id="7741" depart="24.00" from="e42_n2ce" to="e42_cw2w"/>
    <trip id="7746" depart="24.01" from="e31_side_s" to="e31_main_ce"/>
    <trip id="7749" depart="24.02" from="e32_side_s" to="e32_main_cw"/>
    <trip id="7759" depart="24.05" from="e31_side_n" to="e31_main_cw"/>
    <trip id="7768" depart="24.08" from="e22_n" to="e22_cs"/>
    <trip id="7770" depart="24.09" from="e42_e2ce" to="e42_cw2w"/>
    <trip id="7826" depart="24.26" from="e23_w" to="e23_ce"/>
    <trip id="7859" depart="24.36" from="e41_n" to="e41_cw"/>
    <trip id="7877" depart="24.42" from="e22_n" to="e22_cs"/>
    <trip id="7911" depart="24.52" from="e42_n2ce" to="e42_ce2e"/>
    <trip id="7939" depart="24.61" from="e44_n" to="e44_cs"/>
    <trip id="7946" depart="24.63" from="e45_s" to="e45_cn"/>
    <trip id="7950" depart="24.64" from="e42_e2ce" to="e42_cw2s"/>
    <trip id="8001" depart="24.80" from="e31_side_s" to="e31_main_cw"/>
    <trip id="8022" depart="24.87" from="e22_n" to="e22_cs"/>
    <trip id="8057" depart="24.98" from="e12_w" to="e12_cs"/>
    <trip id="8060" depart="24.99" from="e41_n" to="e41_cw"/>
    <trip id="8091" depart="25.08" from="e34_side_s" to="e34_side_cn"/>
    <trip id="8103" depart="25.12" from="e31_side_s" to="e31_side_cn"/>
    <trip id="8143" depart="25.24" from="e41_n" to="e41_ce"/>
    <trip id="8245" depart="25.56" from="e41_n" to="e41_ce"/>
    <trip id="8248" depart="25.57" from="e32_main_e" to="e32_side_cn"/>
    <trip id="8272" depart="25.64" from="e25_s" to="e25_cn"/>
    <trip id="8284" depart="25.68" from="e43_n" to="e43_cw"/>
    <trip id="8398" depart="26.03" from="e34_main_e" to="e34_side_cn"/>
    <trip id="8426" depart="26.12" from="e12_w" to="e12_ce"/>
    <trip id="8429" depart="26.13" from="e24_s" to="e24_cw"/>
    <trip id="8522" depart="26.42" from="e11_e" to="e11_cs"/>
    <trip id="8564" depart="26.55" from="e25_n" to="e25_ce"/>
    <trip id="8570" depart="26.57" from="e14_e" to="e14_cw"/>
    <trip id="8580" depart="26.60" from="e31_side_s" to="e31_main_ce"/>
    <trip id="8581" depart="26.60" from="e45_s" to="e45_ce"/>
    <trip id="8590" depart="26.63" from="e45_w" to="e45_ce"/>
    <trip id="8597" depart="26.65" from="e42_n2ce" to="e42_cw2s"/>
    <trip id="8652" depart="26.82" from="e34_main_e" to="e34_side_cn"/>
    <trip id="8680" depart="26.91" from="e15_s" to="e15_cnw"/>
    <trip id="8698" depart="26.96" from="e21_n" to="e21_ce"/>
    <trip id="8754" depart="27.14" from="e24_e" to="e24_cw"/>
    <trip id="8763" depart="27.17" from="e25_w" to="E0"/>
    <trip id="8779" depart="27.21" from="e34_main_e" to="e34_side_cn"/>
    <trip id="8821" depart="27.35" from="e14_w" to="e14_cs"/>
    <trip id="8910" depart="27.62" from="e35_side_n" to="e35_side_cs"/>
    <trip id="8914" depart="27.63" from="e14_s" to="e14_ce"/>
    <trip id="8917" depart="27.64" from="e21_n" to="e21_ce"/>
    <trip id="8980" depart="27.84" from="e13_w" to="e13_ce"/>
    <trip id="9090" depart="28.18" from="e41_n" to="e41_ce"/>
    <trip id="9113" depart="28.25" from="e35_side_n" to="e35_main_cw"/>
    <trip id="9125" depart="28.29" from="e25_w" to="e25_cn"/>
    <trip id="9230" depart="28.61" from="e21_s" to="e21_ce"/>
    <trip id="9250" depart="28.67" from="e23_n" to="e23_cw"/>
    <trip id="9277" depart="28.76" from="e25_w" to="E0"/>
    <trip id="9294" depart="28.81" from="e32_side_s" to="e32_side_cn"/>
    <trip id="9322" depart="28.90" from="e42_s2cw" to="e42_cw2ce"/>
    <trip id="9383" depart="29.09" from="e42_w2cw" to="e42_ce2e"/>
    <trip id="9423" depart="29.21" from="e22_e" to="e22_cw"/>
    <trip id="9431" depart="29.24" from="e45_n" to="e45_cs"/>
    <trip id="9432" depart="29.24" from="e41_s" to="e41_ce"/>
    <trip id="9433" depart="29.24" from="e42_s2cw" to="e42_ce2e"/>
    <trip id="9434" depart="29.25" from="e41_n" to="e41_ce"/>
    <trip id="9457" depart="29.32" from="e12_s" to="e12_ce"/>
    <trip id="9508" depart="29.47" from="e25_w" to="E0"/>
    <trip id="9509" depart="29.48" from="e21_w" to="e21_cs"/>
    <trip id="9597" depart="29.75" from="e13_w" to="e13_ce"/>
    <trip id="9623" depart="29.83" from="e31_side_s" to="e31_main_cw"/>
    <trip id="9645" depart="29.90" from="e35_main_w" to="e35_side_cs"/>
    <trip id="9688" depart="30.03" from="e31_side_n" to="e31_main_cw"/>
    <trip id="9692" depart="30.05" from="e22_w" to="e22_cs"/>
    <trip id="9698" depart="30.06" from="e23_w" to="e23_cs"/>
    <trip id="9731" depart="30.17" from="e12_e" to="e12_cw"/>
    <trip id="9747" depart="30.22" from="e23_n" to="e23_cw"/>
    <trip id="9774" depart="30.30" from="e34_main_e" to="e34_main_cw"/>
    <trip id="9864" depart="30.58" from="e24_s" to="e24_cw"/>
    <trip id="9945" depart="30.83" from="e24_w" to="e24_cn"/>
    <trip id="9956" depart="30.86" from="e11_s" to="e11_cw"/>
    <trip id="10000" depart="31.00" from="e13_s" to="e13_cw"/>
    <trip id="10005" depart="31.02" from="e22_n" to="e22_cw"/>
    <trip id="10010" depart="31.03" from="e25_e" to="e25_cn"/>
    <trip id="10037" depart="31.11" from="e21_e" to="e21_cn"/>
    <trip id="10087" depart="31.27" from="e11_e" to="e11_cw"/>
    <trip id="10110" depart="31.34" from="e15_s" to="e15_cne"/>
    <trip id="10115" depart="31.36" from="e21_e" to="e21_cs"/>
    <trip id="10128" depart="31.40" from="e41_s" to="e41_cw"/>
    <trip id="10144" depart="31.45" from="e22_n" to="e22_cw"/>
    <trip id="10170" depart="31.53" from="e34_side_s" to="e34_main_ce"/>
    <trip id="10175" depart="31.54" from="e21_n" to="e21_cs"/>
    <trip id="10264" depart="31.82" from="e42_n2ce" to="e42_cw2s"/>
    <trip id="10322" depart="32.00" from="e32_side_s" to="e32_main_cw"/>
    <trip id="10324" depart="32.00" from="e43_n" to="e43_cs"/>
    <trip id="10398" depart="32.23" from="e31_main_w" to="e31_main_ce"/>
    <trip id="10413" depart="32.28" from="e25_e" to="e25_cn"/>
    <trip id="10497" depart="32.54" from="e41_s" to="e41_cw"/>
    <trip id="10510" depart="32.58" from="e11_e" to="e11_cw"/>
    <trip id="10530" depart="32.64" from="e22_s" to="e22_cw"/>
    <trip id="10543" depart="32.68" from="e31_main_w" to="e31_main_ce"/>
    <trip id="10619" depart="32.92" from="e25_n" to="e25_ce"/>
    <trip id="10657" depart="33.04" from="e33_main_e" to="e33_side_cs"/>
    <trip id="10713" depart="33.21" from="e24_w" to="e24_ce"/>
    <trip id="10729" depart="33.26" from="e23_s" to="e23_ce"/>
    <trip id="10738" depart="33.29" from="e42_n2ce" to="e42_ce2e"/>
    <trip id="10753" depart="33.33" from="e42_s2cw" to="e42_ce2e"/>
    <trip id="10765" depart="33.37" from="e21_n" to="e21_cs"/>
    <trip id="10839" depart="33.60" from="e21_e" to="e21_cw"/>
    <trip id="10932" depart="33.89" from="e32_side_n" to="e32_main_ce"/>
    <trip id="10942" depart="33.92" from="e22_w" to="e22_ce"/>
    <trip id="10982" depart="34.04" from="e42_cw2ce" to="e42_ce2e"/>
    <trip id="11005" depart="34.12" from="e21_s" to="e21_cn"/>
    <trip id="11034" depart="34.21" from="e42_w2cw" to="e42_ce2e"/>
    <trip id="11060" depart="34.29" from="e12_e" to="e12_cs"/>
    <trip id="11119" depart="34.47" from="e33_side_s" to="e33_main_cw"/>
    <trip id="11208" depart="34.74" from="e13_e" to="e13_cw"/>
    <trip id="11214" depart="34.76" from="e31_side_n" to="e31_main_ce"/>
    <trip id="11228" depart="34.81" from="e24_n" to="e24_cs"/>
    <trip id="11275" depart="34.95" from="e33_main_w" to="e33_main_ce"/>
    <trip id="11314" depart="35.07" from="e35_side_n" to="e35_main_cw"/>
    <trip id="11348" depart="35.18" from="e11_e" to="e11_cs"/>
    <trip id="11501" depart="35.65" from="e45_e" to="e45_cs"/>
    <trip id="11510" depart="35.68" from="e41_s" to="e41_cw"/>
    <trip id="11514" depart="35.69" from="e42_e2ce" to="e42_cw2s"/>
    <trip id="11516" depart="35.70" from="e31_side_n" to="e31_main_cw"/>
    <trip id="11548" depart="35.80" from="e22_n" to="e22_ce"/>
    <trip id="11607" depart="35.98" from="e32_main_e" to="e32_main_cw"/>
    <trip id="11717" depart="36.32" from="e14_s" to="e14_ce"/>
    <trip id="11768" depart="36.48" from="e44_n" to="e44_cs"/>
    <trip id="11772" depart="36.49" from="e32_side_s" to="e32_side_cn"/>
    <trip id="11812" depart="36.62" from="e45_e" to="e45_cn"/>
    <trip id="11820" depart="36.64" from="e24_e" to="e24_cw"/>
    <trip id="11833" depart="36.68" from="e42_w2cw" to="e42_ce2e"/>
    <trip id="11840" depart="36.70" from="e21_w" to="e21_cs"/>
    <trip id="11924" depart="36.96" from="e34_main_w" to="e34_main_ce"/>
    <trip id="11963" depart="37.09" from="e33_main_e" to="e33_main_cw"/>
    <trip id="11979" depart="37.13" from="e34_side_s" to="e34_side_cn"/>
    <trip id="11985" depart="37.15" from="e14_e" to="e14_cw"/>
    <trip id="12009" depart="37.23" from="e25_s" to="e25_ce"/>
    <trip id="12011" depart="37.23" from="e41_w" to="e41_cs"/>
    <trip id="12041" depart="37.33" from="e24_n" to="e24_ce"/>
    <trip id="12054" depart="37.37" from="e32_side_n" to="e32_side_cs"/>
    <trip id="12083" depart="37.46" from="e33_main_w" to="e33_side_cn"/>
    <trip id="12166" depart="37.71" from="e25_s" to="e25_cw"/>
    <trip id="12207" depart="37.84" from="e24_n" to="e24_ce"/>
    <trip id="12216" depart="37.87" from="e41_w" to="e41_cs"/>
    <trip id="12217" depart="37.87" from="e22_w" to="e22_ce"/>
    <trip id="12229" depart="37.91" from="e42_cw2ce" to="e42_ce2e"/>
    <trip id="12243" depart="37.95" from="e43_s" to="e43_ce"/>
    <trip id="12319" depart="38.19" from="e22_w" to="e22_ce"/>
    <trip id="12342" depart="38.26" from="e25_n" to="e25_cs.35"/>
    <trip id="12410" depart="38.47" from="e22_e" to="e22_cs"/>
    <trip id="12414" depart="38.48" from="e43_s" to="e43_ce"/>
    <trip id="12438" depart="38.56" from="e45_w" to="e45_cs"/>
    <trip id="12448" depart="38.59" from="e45_w" to="e45_cn"/>
    <trip id="12563" depart="38.95" from="e32_main_w" to="e32_side_cs"/>
    <trip id="12592" depart="39.04" from="e23_e" to="e23_cn"/>
    <trip id="12625" depart="39.14" from="e12_e" to="e12_cw"/>
    <trip id="12652" depart="39.22" from="e45_e" to="e45_cn"/>
    <trip id="12675" depart="39.29" from="e34_main_e" to="e34_main_cw"/>
    <trip id="12676" depart="39.30" from="e25_w" to="e25_ce"/>
    <trip id="12721" depart="39.44" from="e15_ne" to="e15_cs"/>
    <trip id="12803" depart="39.69" from="e13_w" to="e13_ce"/>
    <trip id="12821" depart="39.75" from="e15_ne" to="e15_cs"/>
    <trip id="12894" depart="39.97" from="e43_w" to="e43_cs"/>
    <trip id="12966" depart="40.19" from="e15_ne" to="e15_cs"/>
    <trip id="12975" depart="40.22" from="e21_w" to="e21_ce"/>
    <trip id="13078" depart="40.54" from="e45_w" to="e45_cn"/>
    <trip id="13080" depart="40.55" from="e42_e2ce" to="e42_ce2n"/>
    <trip id="13137" depart="40.72" from="e41_s" to="e41_cw"/>
    <trip id="13184" depart="40.87" from="e23_w" to="e23_cs"/>
    <trip id="13193" depart="40.90" from="e42_e2ce" to="e42_cw2w"/>
    <trip id="13196" depart="40.91" from="e31_main_e" to="e31_side_cn"/>
    <trip id="13199" depart="40.92" from="e43_n" to="e43_cs"/>
    <trip id="13232" depart="41.02" from="e31_side_n" to="e31_main_cw"/>
    <trip id="13296" depart="41.22" from="e32_side_s" to="e32_main_ce"/>
    <trip id="13312" depart="41.27" from="e24_w" to="e24_ce"/>
    <trip id="13313" depart="41.27" from="e31_side_n" to="e31_main_ce"/>
    <trip id="13340" depart="41.35" from="e14_w" to="e14_ce"/>
    <trip id="13347" depart="41.38" from="e43_e" to="e43_cw"/>
    <trip id="13357" depart="41.41" from="e42_n2ce" to="e42_ce2e"/>
    <trip id="13376" depart="41.47" from="e41_s" to="e41_cw"/>
    <trip id="13404" depart="41.55" from="e11_w" to="e11_ce"/>
    <trip id="13408" depart="41.56" from="e24_s" to="e24_ce"/>
    <trip id="13440" depart="41.66" from="e43_w" to="e43_ce"/>
    <trip id="13506" depart="41.87" from="e42_e2ce" to="e42_cw2w"/>
    <trip id="13525" depart="41.93" from="e33_side_n" to="e33_main_cw"/>
    <trip id="13530" depart="41.94" from="e21_s" to="e21_ce"/>
    <trip id="13555" depart="42.02" from="e34_main_w" to="e34_side_cs"/>
    <trip id="13603" depart="42.17" from="e25_w" to="E0"/>
    <trip id="13717" depart="42.52" from="e35_side_s" to="e35_side_cn"/>
    <trip id="13730" depart="42.56" from="e31_side_n" to="e31_main_cw"/>
    <trip id="13732" depart="42.57" from="e21_w" to="e21_cn"/>
    <trip id="13740" depart="42.59" from="e22_s" to="e22_ce"/>
    <trip id="13894" depart="43.07" from="e35_main_w" to="e35_main_ce"/>
    <trip id="13935" depart="43.20" from="e11_e" to="e11_cw"/>
    <trip id="13944" depart="43.23" from="e34_main_e" to="e34_main_cw"/>
    <trip id="13963" depart="43.29" from="e35_side_s" to="e35_side_cn"/>
    <trip id="13969" depart="43.30" from="e41_n" to="e41_cw"/>
    <trip id="14003" depart="43.41" from="e42_n2ce" to="e42_ce2e"/>
    <trip id="14018" depart="43.46" from="e31_main_w" to="e31_side_cs"/>