<?xml version='1.0' encoding='utf-8'?>
<additional>
  <inductionLoop id="e1_e11_e_0" lane="e11_e_0" pos="72.80" freq="60" file="detectors.out.xml" />
  <inductionLoop id="e1_e11_s_0" lane="e11_s_0" pos="72.80" freq="60" file="detectors.out.xml" />
  <inductionLoop id="e1_e11_w_0" lane="e11_w_0" pos="72.80" freq="60" file="detectors.out.xml" />
  <inductionLoop id="e1_e12_e_0" lane="e12_e_0" pos="72.80" freq="60" file="detectors.out.xml" />
  <inductionLoop id="e1_e12_e_1" lane="e12_e_1" pos="72.80" freq="60" file="detectors.out.xml" />
  <inductionLoop id="e1_e12_s_0" lane="e12_s_0" pos="69.60" freq="60" file="detectors.out.xml" />
  <inductionLoop id="e1_e12_w_0" lane="e12_w_0" pos="72.80" freq="60" file="detectors.out.xml" />
  <inductionLoop id="e1_e12_w_1" lane="e12_w_1" pos="72.80" freq="60" file="detectors.out.xml" />
  <inductionLoop id="e1_e13_e_0" lane="e13_e_0" pos="69.60" freq="60" file="detectors.out.xml" />
  <inductionLoop id="e1_e13_e_1" lane="e13_e_1" pos="69.60" freq="60" file="detectors.out.xml" />
  <inductionLoop id="e1_e13_s_0" lane="e13_s_0" pos="69.60" freq="60" file="detectors.out.xml" />
  <inductionLoop id="e1_e13_s_1" lane="e13_s_1" pos="69.60" freq="60" file="detectors.out.xml" />
  <inductionLoop id="e1_e13_w_0" lane="e13_w_0" pos="69.60" freq="60" file="detectors.out.xml" />
  <inductionLoop id="e1_e13_w_1" lane="e13_w_1" pos="69.60" freq="60" file="detectors.out.xml" />
  <inductionLoop id="e1_e14_e_0" lane="e14_e_0" pos="66.40" freq="60" file="detectors.out.xml" />
  <inductionLoop id="e1_e14_e_1" lane="e14_e_1" pos="66.40" freq="60" file="detectors.out.xml" />
  <inductionLoop id="e1_e14_e_2" lane="e14_e_2" pos="66.40" freq="60" file="detectors.out.xml" />
  <inductionLoop id="e1_e14_s_0" lane="e14_s_0" pos="66.40" freq="60" file="detectors.out.xml" />
  <inductionLoop id="e1_e14_s_1" lane="e14_s_1" pos="66.40" freq="60" file="detectors.out.xml" />
  <inductionLoop id="e1_e14_s_2" lane="e14_s_2" pos="66.40" freq="60" file="detectors.out.xml" />
  <inductionLoop id="e1_e14_w_0" lane="e14_w_0" pos="66.40" freq="60" file="detectors.out.xml" />
  <inductionLoop id="e1_e14_w_1" lane="e14_w_1" pos="66.40" freq="60" file="detectors.out.xml" />
  <inductionLoop id="e1_e14_w_2" lane="e14_w_2" pos="66.40" freq="60" file="detectors.out.xml" />
  <inductionLoop id="e1_e15_ne_0" lane="e15_ne_0" pos="68.59" freq="60" file="detectors.out.xml" />
  <inductionLoop id="e1_e15_s_0" lane="e15_s_0" pos="73.35" freq="60" file="detectors.out.xml" />
  <inductionLoop id="e1_e15_s_1" lane="e15_s_1" pos="73.35" freq="60" file="detectors.out.xml" />
  <inductionLoop id="e1_e15_nw_0" lane="e15_nw_0" pos="71.79" freq="60" file="detectors.out.xml" />
  <inductionLoop id="e1_e15_nw_1" lane="e15_nw_1" pos="71.80" freq="60" file="detectors.out.xml" />
  <inductionLoop id="e1_e21_n_0" lane="e21_n_0" pos="72.80" freq="60" file="detectors.out.xml" />
  <inductionLoop id="e1_e21_e_0" lane="e21_e_0" pos="72.80" freq="60" file="detectors.out.xml" />
  <inductionLoop id="e1_e21_s_0" lane="e21_s_0" pos="72.80" freq="60" file="detectors.out.xml" />
  <inductionLoop id="e1_e21_w_0" lane="e21_w_0" pos="72.80" freq="60" file="detectors.out.xml" />
  <inductionLoop id="e1_e22_n_0" lane="e22_n_0" pos="69.60" freq="60" file="detectors.out.xml" />
  <inductionLoop id="e1_e22_n_1" lane="e22_n_1" pos="69.60" freq="60" file="detectors.out.xml" />
  <inductionLoop id="e1_e22_e_0" lane="e22_e_0" pos="69.60" freq="60" file="detectors.out.xml" />
  <inductionLoop id="e1_e22_e_1" lane="e22_e_1" pos="69.60" freq="60" file="detectors.out.xml" />
  <inductionLoop id="e1_e22_s_0" lane="e22_s_0" pos="69.60" freq="60" file="detectors.out.xml" />
  <inductionLoop id="e1_e22_s_1" lane="e22_s_1" pos="69.60" freq="60" file="detectors.out.xml" />
  <inductionLoop id="e1_e22_w_0" lane="e22_w_0" pos="69.60" freq="60" file="detectors.out.xml" />
  <inductionLoop id="e1_e22_w_1" lane="e22_w_1" pos="69.60" freq="60" file="detectors.out.xml" />
  <inductionLoop id="e1_e23_n_0" lane="e23_n_0" pos="69.60" freq="60" file="detectors.out.xml" />
  <inductionLoop id="e1_e23_n_1" lane="e23_n_1" pos="69.60" freq="60" file="detectors.out.xml" />
  <inductionLoop id="e1_e23_e_0" lane="e23_e_0" pos="69.60" freq="60" file="detectors.out.xml" />
  <inductionLoop id="e1_e23_e_1" lane="e23_e_1" pos="69.60" freq="60" file="detectors.out.xml" />
  <inductionLoop id="e1_e23_s_0" lane="e23_s_0" pos="69.60" freq="60" file="detectors.out.xml" />
  <inductionLoop id="e1_e23_s_1" lane="e23_s_1" pos="69.60" freq="60" file="detectors.out.xml" />
  <inductionLoop id="e1_e23_w_0" lane="e23_w_0" pos="69.60" freq="60" file="detectors.out.xml" />
  <inductionLoop id="e1_e23_w_1" lane="e23_w_1" pos="69.60" freq="60" file="detectors.out.xml" />
  <inductionLoop id="e1_e24_n_0" lane="e24_n_0" pos="66.40" freq="60" file="detectors.out.xml" />
  <inductionLoop id="e1_e24_n_1" lane="e24_n_1" pos="66.40" freq="60" file="detectors.out.xml" />
  <inductionLoop id="e1_e24_n_2" lane="e24_n_2" pos="66.40" freq="60" file="detectors.out.xml" />
  <inductionLoop id="e1_e24_e_0" lane="e24_e_0" pos="66.40" freq="60" file="detectors.out.xml" />
  <inductionLoop id="e1_e24_e_1" lane="e24_e_1" pos="66.40" freq="60" file="detectors.out.xml" />
  <inductionLoop id="e1_e24_e_2" lane="e24_e_2" pos="66.40" freq="60" file="detectors.out.xml" />
  <inductionLoop id="e1_e24_s_0" lane="e24_s_0" pos="66.40" freq="60" file="detectors.out.xml" />
  <inductionLoop id="e1_e24_s_1" lane="e24_s_1" pos="66.40" freq="60" file="detectors.out.xml" />
  <inductionLoop id="e1_e24_s_2" lane="e24_s_2" pos="66.40" freq="60" file="detectors.out.xml" />
  <inductionLoop id="e1_e24_w_0" lane="e24_w_0" pos="66.40" freq="60" file="detectors.out.xml" />
  <inductionLoop id="e1_e24_w_1" lane="e24_w_1" pos="66.40" freq="60" file="detectors.out.xml" />
  <inductionLoop id="e1_e24_w_2" lane="e24_w_2" pos="66.40" freq="60" file="detectors.out.xml" />
  <inductionLoop id="e1_e25_n_0" lane="e25_n_0" pos="116.40" freq="60" file="detectors.out.xml" />
  <inductionLoop id="e1_e25_n_1" lane="e25_n_1" pos="116.40" freq="60" file="detectors.out.xml" />
  <inductionLoop id="e1_e25_n_2" lane="e25_n_2" pos="116.40" freq="60" file="detectors.out.xml" />
  <inductionLoop id="e1_e25_e_0" lane="e25_e_0" pos="116.40" freq="60" file="detectors.out.xml" />
  <inductionLoop id="e1_e25_e_1" lane="e25_e_1" pos="116.40" freq="60" file="detectors.out.xml" />
  <inductionLoop id="e1_e25_e_2" lane="e25_e_2" pos="116.40" freq="60" file="detectors.out.xml" />
  <inductionLoop id="e1_e25_s_0" lane="e25_s_0" pos="116.40" freq="60" file="detectors.out.xml" />
  <inductionLoop id="e1_e25_s_1" lane="e25_s_1" pos="116.40" freq="60" file="detectors.out.xml" />
  <inductionLoop id="e1_e25_s_2" lane="e25_s_2" pos="116.40" freq="60" file="detectors.out.xml" />
  <inductionLoop id="e1_e25_w.89_0" lane="e25_w.89_0" pos="2.06" freq="60" file="detectors.out.xml" />
  <inductionLoop id="e1_e25_w.89_1" lane="e25_w.89_1" pos="2.06" freq="60" file="detectors.out.xml" />
  <inductionLoop id="e1_e31_side_n_0" lane="e31_side_n_0" pos="69.60" freq="60" file="detectors.out.xml" />
  <inductionLoop id="e1_e31_main_e_0" lane="e31_main_e_0" pos="72.80" freq="60" file="detectors.out.xml" />
  <inductionLoop id="e1_e31_main_e_1" lane="e31_main_e_1" pos="72.80" freq="60" file="detectors.out.xml" />
  <inductionLoop id="e1_e31_side_s_0" lane="e31_side_s_0" pos="69.60" freq="60" file="detectors.out.xml" />
  <inductionLoop id="e1_e31_main_w_0" lane="e31_main_w_0" pos="72.80" freq="60" file="detectors.out.xml" />
  <inductionLoop id="e1_e31_main_w_1" lane="e31_main_w_1" pos="72.80" freq="60" file="detectors.out.xml" />
  <inductionLoop id="e1_e32_side_n_0" lane="e32_side_n_0" pos="66.40" freq="60" file="detectors.out.xml" />
  <inductionLoop id="e1_e32_main_e_0" lane="e32_main_e_0" pos="72.80" freq="60" file="detectors.out.xml" />
  <inductionLoop id="e1_e32_main_e_1" lane="e32_main_e_1" pos="72.80" freq="60" file="detectors.out.xml" />
  <inductionLoop id="e1_e32_main_e_2" lane="e32_main_e_2" pos="72.80" freq="60" file="detectors.out.xml" />
  <inductionLoop id="e1_e32_side_s_0" lane="e32_side_s_0" pos="66.40" freq="60" file="detectors.out.xml" />
  <inductionLoop id="e1_e32_main_w_0" lane="e32_main_w_0" pos="72.80" freq="60" file="detectors.out.xml" />
  <inductionLoop id="e1_e32_main_w_1" lane="e32_main_w_1" pos="72.80" freq="60" file="detectors.out.xml" />
  <inductionLoop id="e1_e32_main_w_2" lane="e32_main_w_2" pos="72.80" freq="60" file="detectors.out.xml" />
  <inductionLoop id="e1_e33_side_n_0" lane="e33_side_n_0" pos="66.40" freq="60" file="detectors.out.xml" />
  <inductionLoop id="e1_e33_main_e_0" lane="e33_main_e_0" pos="72.80" freq="60" file="detectors.out.xml" />
  <inductionLoop id="e1_e33_main_e_1" lane="e33_main_e_1" pos="72.80" freq="60" file="detectors.out.xml" />
  <inductionLoop id="e1_e33_main_e_2" lane="e33_main_e_2" pos="72.80" freq="60" file="detectors.out.xml" />
  <inductionLoop id="e1_e33_side_s_0" lane="e33_side_s_0" pos="66.40" freq="60" file="detectors.out.xml" />
  <inductionLoop id="e1_e33_main_w_0" lane="e33_main_w_0" pos="72.80" freq="60" file="detectors.out.xml" />
  <inductionLoop id="e1_e33_main_w_1" lane="e33_main_w_1" pos="72.80" freq="60" file="detectors.out.xml" />
  <inductionLoop id="e1_e33_main_w_2" lane="e33_main_w_2" pos="72.80" freq="60" file="detectors.out.xml" />
  <inductionLoop id="e1_e34_side_n_0" lane="e34_side_n_0" pos="69.60" freq="60" file="detectors.out.xml" />
  <inductionLoop id="e1_e34_main_e_0" lane="e34_main_e_0" pos="72.80" freq="60" file="detectors.out.xml" />
  <inductionLoop id="e1_e34_main_e_1" lane="e34_main_e_1" pos="72.80" freq="60" file="detectors.out.xml" />
  <inductionLoop id="e1_e34_side_s_0" lane="e34_side_s_0" pos="69.60" freq="60" file="detectors.out.xml" />
  <inductionLoop id="e1_e34_main_w_0" lane="e34_main_w_0" pos="72.80" freq="60" file="detectors.out.xml" />
  <inductionLoop id="e1_e34_main_w_1" lane="e34_main_w_1" pos="72.80" freq="60" file="detectors.out.xml" />
  <inductionLoop id="e1_e35_side_n_0" lane="e35_side_n_0" pos="69.60" freq="60" file="detectors.out.xml" />
  <inductionLoop id="e1_e35_side_n_1" lane="e35_side_n_1" pos="69.60" freq="60" file="detectors.out.xml" />
  <inductionLoop id="e1_e35_main_e_0" lane="e35_main_e_0" pos="69.60" freq="60" file="detectors.out.xml" />
  <inductionLoop id="e1_e35_main_e_1" lane="e35_main_e_1" pos="69.60" freq="60" file="detectors.out.xml" />
  <inductionLoop id="e1_e35_side_s_0" lane="e35_side_s_0" pos="69.60" freq="60" file="detectors.out.xml" />
  <inductionLoop id="e1_e35_side_s_1" lane="e35_side_s_1" pos="69.60" freq="60" file="detectors.out.xml" />
  <inductionLoop id="e1_e35_main_w_0" lane="e35_main_w_0" pos="69.60" freq="60" file="detectors.out.xml" />
  <inductionLoop id="e1_e35_main_w_1" lane="e35_main_w_1" pos="69.60" freq="60" file="detectors.out.xml" />
  <inductionLoop id="e1_e41_n_0" lane="e41_n_0" pos="77.45" freq="60" file="detectors.out.xml" />
  <inductionLoop id="e1_e41_n_1" lane="e41_n_1" pos="77.45" freq="60" file="detectors.out.xml" />
  <inductionLoop id="e1_e41_e_0" lane="e41_e_0" pos="65.64" freq="60" file="detectors.out.xml" />
  <inductionLoop id="e1_e41_e_1" lane="e41_e_1" pos="65.64" freq="60" file="detectors.out.xml" />
  <inductionLoop id="e1_e41_s_0" lane="e41_s_0" pos="77.45" freq="60" file="detectors.out.xml" />
  <inductionLoop id="e1_e41_s_1" lane="e41_s_1" pos="77.45" freq="60" file="detectors.out.xml" />
  <inductionLoop id="e1_e41_w_0" lane="e41_w_0" pos="65.64" freq="60" file="detectors.out.xml" />
  <inductionLoop id="e1_e41_w_1" lane="e41_w_1" pos="65.64" freq="60" file="detectors.out.xml" />
  <inductionLoop id="e1_e42_n2ce_0" lane="e42_n2ce_0" pos="69.60" freq="60" file="detectors.out.xml" />
  <inductionLoop id="e1_e42_e2ce_0" lane="e42_e2ce_0" pos="72.80" freq="60" file="detectors.out.xml" />
  <inductionLoop id="e1_e42_e2ce_1" lane="e42_e2ce_1" pos="72.80" freq="60" file="detectors.out.xml" />
  <inductionLoop id="e1_e42_cw2ce_0" lane="e42_cw2ce_0" pos="65.60" freq="60" file="detectors.out.xml" />
  <inductionLoop id="e1_e42_cw2ce_1" lane="e42_cw2ce_1" pos="65.60" freq="60" file="detectors.out.xml" />
  <inductionLoop id="e1_e42_ce2cw_0" lane="e42_ce2cw_0" pos="65.60" freq="60" file="detectors.out.xml" />
  <inductionLoop id="e1_e42_ce2cw_1" lane="e42_ce2cw_1" pos="65.60" freq="60" file="detectors.out.xml" />
  <inductionLoop id="e1_e42_s2cw_0" lane="e42_s2cw_0" pos="69.60" freq="60" file="detectors.out.xml" />
  <inductionLoop id="e1_e42_w2cw_0" lane="e42_w2cw_0" pos="72.80" freq="60" file="detectors.out.xml" />
  <inductionLoop id="e1_e42_w2cw_1" lane="e42_w2cw_1" pos="72.80" freq="60" file="detectors.out.xml" />
  <inductionLoop id="e1_e43_n_0" lane="e43_n_0" pos="77.45" freq="60" file="detectors.out.xml" />
  <inductionLoop id="e1_e43_n_1" lane="e43_n_1" pos="77.45" freq="60" file="detectors.out.xml" />
  <inductionLoop id="e1_e43_e_0" lane="e43_e_0" pos="65.64" freq="60" file="detectors.out.xml" />
  <inductionLoop id="e1_e43_e_1" lane="e43_e_1" pos="65.64" freq="60" file="detectors.out.xml" />
  <inductionLoop id="e1_e43_s_0" lane="e43_s_0" pos="77.45" freq="60" file="detectors.out.xml" />
  <inductionLoop id="e1_e43_s_1" lane="e43_s_1" pos="77.45" freq="60" file="detectors.out.xml" />
  <inductionLoop id="e1_e43_w_0" lane="e43_w_0" pos="65.64" freq="60" file="detectors.out.xml" />
  <inductionLoop id="e1_e43_w_1" lane="e43_w_1" pos="65.64" freq="60" file="detectors.out.xml" />
  <inductionLoop id="e1_e44_n_0" lane="e44_n_0" pos="76.00" freq="60" file="detectors.out.xml" />
  <inductionLoop id="e1_e44_n_1" lane="e44_n_1" pos="76.00" freq="60" file="detectors.out.xml" />
  <inductionLoop id="e1_e44_w_0" lane="e44_w_0" pos="69.60" freq="60" file="detectors.out.xml" />
  <inductionLoop id="e1_e44_w_1" lane="e44_w_1" pos="69.60" freq="60" file="detectors.out.xml" />
  <inductionLoop id="e1_e45_n_0" lane="e45_n_0" pos="69.60" freq="60" file="detectors.out.xml" />
  <inductionLoop id="e1_e45_n_1" lane="e45_n_1" pos="69.60" freq="60" file="detectors.out.xml" />
  <inductionLoop id="e1_e45_e_0" lane="e45_e_0" pos="69.60" freq="60" file="detectors.out.xml" />
  <inductionLoop id="e1_e45_e_1" lane="e45_e_1" pos="69.60" freq="60" file="detectors.out.xml" />
  <inductionLoop id="e1_e45_s_0" lane="e45_s_0" pos="69.60" freq="60" file="detectors.out.xml" />
  <inductionLoop id="e1_e45_s_1" lane="e45_s_1" pos="69.60" freq="60" file="detectors.out.xml" />
  <inductionLoop id="e1_e45_w_0" lane="e45_w_0" pos="69.60" freq="60" file="detectors.out.xml" />
  <inductionLoop id="e1_e25_w_0" lane="e25_w_0" pos="90.59" freq="60" file="detectors.out.xml" />
  <inductionLoop id="e1_e25_w_1" lane="e25_w_1" pos="90.59" freq="60" file="detectors.out.xml" />
  <inductionLoop id="e1_e25_w_2" lane="e25_w_2" pos="90.59" freq="60" file="detectors.out.xml" />
  <inductionLoop id="e1_e25_cs_0" lane="e25_cs_0" pos="1.72" freq="60" file="detectors.out.xml" />
  <inductionLoop id="e1_e25_cs_1" lane="e25_cs_1" pos="1.72" freq="60" file="detectors.out.xml" />
  <inductionLoop id="e1_E0_0" lane="E0_0" pos="20.12" freq="60" file="detectors.out.xml" />
</additional>